
---------- Begin Simulation Statistics ----------
final_tick                               163367337000                       # Number of ticks from beginning of simulation (restored from checkpoints and never reset)
host_inst_rate                                 166854                       # Simulator instruction rate (inst/s)
host_mem_usage                                 682972                       # Number of bytes of host memory used
host_op_rate                                   167182                       # Simulator op (including micro ops) rate (op/s)
host_seconds                                   599.32                       # Real time elapsed on the host
host_tick_rate                              272585680                       # Simulator tick rate (ticks/s)
sim_freq                                 1000000000000                       # Frequency of simulated ticks
sim_insts                                   100000001                       # Number of instructions simulated
sim_ops                                     100196363                       # Number of ops (including micro ops) simulated
sim_seconds                                  0.163367                       # Number of seconds simulated
sim_ticks                                163367337000                       # Number of ticks simulated
system.cpu.branchPred.BTBCorrect                    0                       # Number of correct BTB predictions (this stat may not work properly.
system.cpu.branchPred.BTBHitPct             99.615915                       # BTB Hit Percentage
system.cpu.branchPred.BTBHits                 2095620                       # Number of BTB hits
system.cpu.branchPred.BTBLookups              2103700                       # Number of BTB lookups
system.cpu.branchPred.RASInCorrect                  5                       # Number of incorrect RAS predictions.
system.cpu.branchPred.condIncorrect             81389                       # Number of conditional branches incorrect
system.cpu.branchPred.condPredicted           3728149                       # Number of conditional branches predicted
system.cpu.branchPred.indirectHits                292                       # Number of indirect target hits.
system.cpu.branchPred.indirectLookups            1000                       # Number of indirect predictor lookups.
system.cpu.branchPred.indirectMisses              708                       # Number of indirect misses.
system.cpu.branchPred.lookups                 4478277                       # Number of BP lookups
system.cpu.branchPred.usedRAS                   65362                       # Number of times the RAS was used to get a target.
system.cpu.branchPredindirectMispredicted          168                       # Number of mispredicted indirect branches.
system.cpu.committedInsts                   100000001                       # Number of instructions committed
system.cpu.committedOps                     100196363                       # Number of ops (including micro ops) committed
system.cpu.cpi                               1.633673                       # CPI: cycles per instruction
system.cpu.discardedOps                        190817                       # Number of ops (including micro ops) which were discarded before commit
system.cpu.dtb.accesses                             0                       # DTB accesses
system.cpu.dtb.align_faults                         0                       # Number of TLB faults due to alignment restrictions
system.cpu.dtb.domain_faults                        0                       # Number of TLB faults due to domain restrictions
system.cpu.dtb.flush_entries                        0                       # Number of entries that have been flushed from TLB
system.cpu.dtb.flush_tlb                            0                       # Number of times complete TLB was flushed
system.cpu.dtb.flush_tlb_asid                       0                       # Number of times TLB was flushed by ASID
system.cpu.dtb.flush_tlb_mva                        0                       # Number of times TLB was flushed by MVA
system.cpu.dtb.flush_tlb_mva_asid                   0                       # Number of times TLB was flushed by MVA & ASID
system.cpu.dtb.hits                                 0                       # DTB hits
system.cpu.dtb.inst_accesses                        0                       # ITB inst accesses
system.cpu.dtb.inst_hits                            0                       # ITB inst hits
system.cpu.dtb.inst_misses                          0                       # ITB inst misses
system.cpu.dtb.misses                               0                       # DTB misses
system.cpu.dtb.perms_faults                         0                       # Number of TLB faults due to permissions restrictions
system.cpu.dtb.prefetch_faults                      0                       # Number of TLB faults due to prefetch
system.cpu.dtb.read_accesses                        0                       # DTB read accesses
system.cpu.dtb.read_hits                            0                       # DTB read hits
system.cpu.dtb.read_misses                          0                       # DTB read misses
system.cpu.dtb.stage2_mmu.stage2_tlb.accesses            0                       # DTB accesses
system.cpu.dtb.stage2_mmu.stage2_tlb.align_faults            0                       # Number of TLB faults due to alignment restrictions
system.cpu.dtb.stage2_mmu.stage2_tlb.domain_faults            0                       # Number of TLB faults due to domain restrictions
system.cpu.dtb.stage2_mmu.stage2_tlb.flush_entries            0                       # Number of entries that have been flushed from TLB
system.cpu.dtb.stage2_mmu.stage2_tlb.flush_tlb            0                       # Number of times complete TLB was flushed
system.cpu.dtb.stage2_mmu.stage2_tlb.flush_tlb_asid            0                       # Number of times TLB was flushed by ASID
system.cpu.dtb.stage2_mmu.stage2_tlb.flush_tlb_mva            0                       # Number of times TLB was flushed by MVA
system.cpu.dtb.stage2_mmu.stage2_tlb.flush_tlb_mva_asid            0                       # Number of times TLB was flushed by MVA & ASID
system.cpu.dtb.stage2_mmu.stage2_tlb.hits            0                       # DTB hits
system.cpu.dtb.stage2_mmu.stage2_tlb.inst_accesses            0                       # ITB inst accesses
system.cpu.dtb.stage2_mmu.stage2_tlb.inst_hits            0                       # ITB inst hits
system.cpu.dtb.stage2_mmu.stage2_tlb.inst_misses            0                       # ITB inst misses
system.cpu.dtb.stage2_mmu.stage2_tlb.misses            0                       # DTB misses
system.cpu.dtb.stage2_mmu.stage2_tlb.perms_faults            0                       # Number of TLB faults due to permissions restrictions
system.cpu.dtb.stage2_mmu.stage2_tlb.prefetch_faults            0                       # Number of TLB faults due to prefetch
system.cpu.dtb.stage2_mmu.stage2_tlb.read_accesses            0                       # DTB read accesses
system.cpu.dtb.stage2_mmu.stage2_tlb.read_hits            0                       # DTB read hits
system.cpu.dtb.stage2_mmu.stage2_tlb.read_misses            0                       # DTB read misses
system.cpu.dtb.stage2_mmu.stage2_tlb.walker.walkRequestOrigin_Requested::Data            0                       # Table walker requests started/completed, data/inst
system.cpu.dtb.stage2_mmu.stage2_tlb.walker.walkRequestOrigin_Requested::Inst            0                       # Table walker requests started/completed, data/inst
system.cpu.dtb.stage2_mmu.stage2_tlb.walker.walkRequestOrigin_Requested::total            0                       # Table walker requests started/completed, data/inst
system.cpu.dtb.stage2_mmu.stage2_tlb.walker.walkRequestOrigin_Completed::Data            0                       # Table walker requests started/completed, data/inst
system.cpu.dtb.stage2_mmu.stage2_tlb.walker.walkRequestOrigin_Completed::Inst            0                       # Table walker requests started/completed, data/inst
system.cpu.dtb.stage2_mmu.stage2_tlb.walker.walkRequestOrigin_Completed::total            0                       # Table walker requests started/completed, data/inst
system.cpu.dtb.stage2_mmu.stage2_tlb.walker.walkRequestOrigin::total            0                       # Table walker requests started/completed, data/inst
system.cpu.dtb.stage2_mmu.stage2_tlb.walker.walks            0                       # Table walker walks requested
system.cpu.dtb.stage2_mmu.stage2_tlb.write_accesses            0                       # DTB write accesses
system.cpu.dtb.stage2_mmu.stage2_tlb.write_hits            0                       # DTB write hits
system.cpu.dtb.stage2_mmu.stage2_tlb.write_misses            0                       # DTB write misses
system.cpu.dtb.walker.walkRequestOrigin_Requested::Data            0                       # Table walker requests started/completed, data/inst
system.cpu.dtb.walker.walkRequestOrigin_Requested::Inst            0                       # Table walker requests started/completed, data/inst
system.cpu.dtb.walker.walkRequestOrigin_Requested::total            0                       # Table walker requests started/completed, data/inst
system.cpu.dtb.walker.walkRequestOrigin_Completed::Data            0                       # Table walker requests started/completed, data/inst
system.cpu.dtb.walker.walkRequestOrigin_Completed::Inst            0                       # Table walker requests started/completed, data/inst
system.cpu.dtb.walker.walkRequestOrigin_Completed::total            0                       # Table walker requests started/completed, data/inst
system.cpu.dtb.walker.walkRequestOrigin::total            0                       # Table walker requests started/completed, data/inst
system.cpu.dtb.walker.walks                         0                       # Table walker walks requested
system.cpu.dtb.write_accesses                       0                       # DTB write accesses
system.cpu.dtb.write_hits                           0                       # DTB write hits
system.cpu.dtb.write_misses                         0                       # DTB write misses
system.cpu.fetch2.amo_instructions                  0                       # Number of memory atomic instructions successfully decoded
system.cpu.fetch2.fp_instructions                   0                       # Number of floating point instructions successfully decoded
system.cpu.fetch2.int_instructions           42610652                       # Number of integer instructions successfully decoded
system.cpu.fetch2.load_instructions          43403343                       # Number of memory load instructions successfully decoded
system.cpu.fetch2.store_instructions         11001630                       # Number of memory store instructions successfully decoded
system.cpu.fetch2.vec_instructions                  0                       # Number of SIMD instructions successfully decoded
system.cpu.idleCycles                        30836538                       # Total number of cycles that the object has spent stopped
system.cpu.ipc                               0.612117                       # IPC: instructions per cycle
system.cpu.itb.accesses                             0                       # DTB accesses
system.cpu.itb.align_faults                         0                       # Number of TLB faults due to alignment restrictions
system.cpu.itb.domain_faults                        0                       # Number of TLB faults due to domain restrictions
system.cpu.itb.flush_entries                        0                       # Number of entries that have been flushed from TLB
system.cpu.itb.flush_tlb                            0                       # Number of times complete TLB was flushed
system.cpu.itb.flush_tlb_asid                       0                       # Number of times TLB was flushed by ASID
system.cpu.itb.flush_tlb_mva                        0                       # Number of times TLB was flushed by MVA
system.cpu.itb.flush_tlb_mva_asid                   0                       # Number of times TLB was flushed by MVA & ASID
system.cpu.itb.hits                                 0                       # DTB hits
system.cpu.itb.inst_accesses                        0                       # ITB inst accesses
system.cpu.itb.inst_hits                            0                       # ITB inst hits
system.cpu.itb.inst_misses                          0                       # ITB inst misses
system.cpu.itb.misses                               0                       # DTB misses
system.cpu.itb.perms_faults                         0                       # Number of TLB faults due to permissions restrictions
system.cpu.itb.prefetch_faults                      0                       # Number of TLB faults due to prefetch
system.cpu.itb.read_accesses                        0                       # DTB read accesses
system.cpu.itb.read_hits                            0                       # DTB read hits
system.cpu.itb.read_misses                          0                       # DTB read misses
system.cpu.itb.stage2_mmu.stage2_tlb.accesses            0                       # DTB accesses
system.cpu.itb.stage2_mmu.stage2_tlb.align_faults            0                       # Number of TLB faults due to alignment restrictions
system.cpu.itb.stage2_mmu.stage2_tlb.domain_faults            0                       # Number of TLB faults due to domain restrictions
system.cpu.itb.stage2_mmu.stage2_tlb.flush_entries            0                       # Number of entries that have been flushed from TLB
system.cpu.itb.stage2_mmu.stage2_tlb.flush_tlb            0                       # Number of times complete TLB was flushed
system.cpu.itb.stage2_mmu.stage2_tlb.flush_tlb_asid            0                       # Number of times TLB was flushed by ASID
system.cpu.itb.stage2_mmu.stage2_tlb.flush_tlb_mva            0                       # Number of times TLB was flushed by MVA
system.cpu.itb.stage2_mmu.stage2_tlb.flush_tlb_mva_asid            0                       # Number of times TLB was flushed by MVA & ASID
system.cpu.itb.stage2_mmu.stage2_tlb.hits            0                       # DTB hits
system.cpu.itb.stage2_mmu.stage2_tlb.inst_accesses            0                       # ITB inst accesses
system.cpu.itb.stage2_mmu.stage2_tlb.inst_hits            0                       # ITB inst hits
system.cpu.itb.stage2_mmu.stage2_tlb.inst_misses            0                       # ITB inst misses
system.cpu.itb.stage2_mmu.stage2_tlb.misses            0                       # DTB misses
system.cpu.itb.stage2_mmu.stage2_tlb.perms_faults            0                       # Number of TLB faults due to permissions restrictions
system.cpu.itb.stage2_mmu.stage2_tlb.prefetch_faults            0                       # Number of TLB faults due to prefetch
system.cpu.itb.stage2_mmu.stage2_tlb.read_accesses            0                       # DTB read accesses
system.cpu.itb.stage2_mmu.stage2_tlb.read_hits            0                       # DTB read hits
system.cpu.itb.stage2_mmu.stage2_tlb.read_misses            0                       # DTB read misses
system.cpu.itb.stage2_mmu.stage2_tlb.walker.walkRequestOrigin_Requested::Data            0                       # Table walker requests started/completed, data/inst
system.cpu.itb.stage2_mmu.stage2_tlb.walker.walkRequestOrigin_Requested::Inst            0                       # Table walker requests started/completed, data/inst
system.cpu.itb.stage2_mmu.stage2_tlb.walker.walkRequestOrigin_Requested::total            0                       # Table walker requests started/completed, data/inst
system.cpu.itb.stage2_mmu.stage2_tlb.walker.walkRequestOrigin_Completed::Data            0                       # Table walker requests started/completed, data/inst
system.cpu.itb.stage2_mmu.stage2_tlb.walker.walkRequestOrigin_Completed::Inst            0                       # Table walker requests started/completed, data/inst
system.cpu.itb.stage2_mmu.stage2_tlb.walker.walkRequestOrigin_Completed::total            0                       # Table walker requests started/completed, data/inst
system.cpu.itb.stage2_mmu.stage2_tlb.walker.walkRequestOrigin::total            0                       # Table walker requests started/completed, data/inst
system.cpu.itb.stage2_mmu.stage2_tlb.walker.walks            0                       # Table walker walks requested
system.cpu.itb.stage2_mmu.stage2_tlb.write_accesses            0                       # DTB write accesses
system.cpu.itb.stage2_mmu.stage2_tlb.write_hits            0                       # DTB write hits
system.cpu.itb.stage2_mmu.stage2_tlb.write_misses            0                       # DTB write misses
system.cpu.itb.walker.walkRequestOrigin_Requested::Data            0                       # Table walker requests started/completed, data/inst
system.cpu.itb.walker.walkRequestOrigin_Requested::Inst            0                       # Table walker requests started/completed, data/inst
system.cpu.itb.walker.walkRequestOrigin_Requested::total            0                       # Table walker requests started/completed, data/inst
system.cpu.itb.walker.walkRequestOrigin_Completed::Data            0                       # Table walker requests started/completed, data/inst
system.cpu.itb.walker.walkRequestOrigin_Completed::Inst            0                       # Table walker requests started/completed, data/inst
system.cpu.itb.walker.walkRequestOrigin_Completed::total            0                       # Table walker requests started/completed, data/inst
system.cpu.itb.walker.walkRequestOrigin::total            0                       # Table walker requests started/completed, data/inst
system.cpu.itb.walker.walks                         0                       # Table walker walks requested
system.cpu.itb.write_accesses                       0                       # DTB write accesses
system.cpu.itb.write_hits                           0                       # DTB write hits
system.cpu.itb.write_misses                         0                       # DTB write misses
system.cpu.numCycles                        163367337                       # number of cpu cycles simulated
system.cpu.numFetchSuspends                         0                       # Number of times Execute suspended instruction fetching
system.cpu.numWorkItemsCompleted                    0                       # number of work items this cpu completed
system.cpu.numWorkItemsStarted                      0                       # number of work items this cpu started
system.cpu.op_class_0::No_OpClass                   0      0.00%      0.00% # Class of committed instruction
system.cpu.op_class_0::IntAlu                46531400     46.44%     46.44% # Class of committed instruction
system.cpu.op_class_0::IntMult                  20720      0.02%     46.46% # Class of committed instruction
system.cpu.op_class_0::IntDiv                       0      0.00%     46.46% # Class of committed instruction
system.cpu.op_class_0::FloatAdd                     0      0.00%     46.46% # Class of committed instruction
system.cpu.op_class_0::FloatCmp                     0      0.00%     46.46% # Class of committed instruction
system.cpu.op_class_0::FloatCvt                     0      0.00%     46.46% # Class of committed instruction
system.cpu.op_class_0::FloatMult                    0      0.00%     46.46% # Class of committed instruction
system.cpu.op_class_0::FloatMultAcc                 0      0.00%     46.46% # Class of committed instruction
system.cpu.op_class_0::FloatDiv                     0      0.00%     46.46% # Class of committed instruction
system.cpu.op_class_0::FloatMisc                    0      0.00%     46.46% # Class of committed instruction
system.cpu.op_class_0::FloatSqrt                    0      0.00%     46.46% # Class of committed instruction
system.cpu.op_class_0::SimdAdd                      0      0.00%     46.46% # Class of committed instruction
system.cpu.op_class_0::SimdAddAcc                   0      0.00%     46.46% # Class of committed instruction
system.cpu.op_class_0::SimdAlu                      0      0.00%     46.46% # Class of committed instruction
system.cpu.op_class_0::SimdCmp                      0      0.00%     46.46% # Class of committed instruction
system.cpu.op_class_0::SimdCvt                      0      0.00%     46.46% # Class of committed instruction
system.cpu.op_class_0::SimdMisc                     0      0.00%     46.46% # Class of committed instruction
system.cpu.op_class_0::SimdMult                     0      0.00%     46.46% # Class of committed instruction
system.cpu.op_class_0::SimdMultAcc                  0      0.00%     46.46% # Class of committed instruction
system.cpu.op_class_0::SimdShift                    0      0.00%     46.46% # Class of committed instruction
system.cpu.op_class_0::SimdShiftAcc                 0      0.00%     46.46% # Class of committed instruction
system.cpu.op_class_0::SimdDiv                      0      0.00%     46.46% # Class of committed instruction
system.cpu.op_class_0::SimdSqrt                     0      0.00%     46.46% # Class of committed instruction
system.cpu.op_class_0::SimdFloatAdd                 0      0.00%     46.46% # Class of committed instruction
system.cpu.op_class_0::SimdFloatAlu                 0      0.00%     46.46% # Class of committed instruction
system.cpu.op_class_0::SimdFloatCmp                 0      0.00%     46.46% # Class of committed instruction
system.cpu.op_class_0::SimdFloatCvt                 0      0.00%     46.46% # Class of committed instruction
system.cpu.op_class_0::SimdFloatDiv                 0      0.00%     46.46% # Class of committed instruction
system.cpu.op_class_0::SimdFloatMisc               18      0.00%     46.46% # Class of committed instruction
system.cpu.op_class_0::SimdFloatMult                0      0.00%     46.46% # Class of committed instruction
system.cpu.op_class_0::SimdFloatMultAcc             0      0.00%     46.46% # Class of committed instruction
system.cpu.op_class_0::SimdFloatSqrt                0      0.00%     46.46% # Class of committed instruction
system.cpu.op_class_0::SimdReduceAdd                0      0.00%     46.46% # Class of committed instruction
system.cpu.op_class_0::SimdReduceAlu                0      0.00%     46.46% # Class of committed instruction
system.cpu.op_class_0::SimdReduceCmp                0      0.00%     46.46% # Class of committed instruction
system.cpu.op_class_0::SimdFloatReduceAdd            0      0.00%     46.46% # Class of committed instruction
system.cpu.op_class_0::SimdFloatReduceCmp            0      0.00%     46.46% # Class of committed instruction
system.cpu.op_class_0::SimdAes                      0      0.00%     46.46% # Class of committed instruction
system.cpu.op_class_0::SimdAesMix                   0      0.00%     46.46% # Class of committed instruction
system.cpu.op_class_0::SimdSha1Hash                 0      0.00%     46.46% # Class of committed instruction
system.cpu.op_class_0::SimdSha1Hash2                0      0.00%     46.46% # Class of committed instruction
system.cpu.op_class_0::SimdSha256Hash               0      0.00%     46.46% # Class of committed instruction
system.cpu.op_class_0::SimdSha256Hash2              0      0.00%     46.46% # Class of committed instruction
system.cpu.op_class_0::SimdShaSigma2                0      0.00%     46.46% # Class of committed instruction
system.cpu.op_class_0::SimdShaSigma3                0      0.00%     46.46% # Class of committed instruction
system.cpu.op_class_0::SimdPredAlu                  0      0.00%     46.46% # Class of committed instruction
system.cpu.op_class_0::MemRead               42693601     42.61%     89.07% # Class of committed instruction
system.cpu.op_class_0::MemWrite              10950624     10.93%    100.00% # Class of committed instruction
system.cpu.op_class_0::FloatMemRead                 0      0.00%    100.00% # Class of committed instruction
system.cpu.op_class_0::FloatMemWrite                0      0.00%    100.00% # Class of committed instruction
system.cpu.op_class_0::IprAccess                    0      0.00%    100.00% # Class of committed instruction
system.cpu.op_class_0::InstPrefetch                 0      0.00%    100.00% # Class of committed instruction
system.cpu.op_class_0::total                100196363                       # Class of committed instruction
system.cpu.tickCycles                       132530799                       # Number of cycles that the object actually ticked
system.cpu.workload.numSyscalls                    84                       # Number of system calls
system.membus.snoop_filter.hit_multi_requests            0                       # Number of requests hitting in the snoop filter with multiple (>1) holders of the requested data.
system.membus.snoop_filter.hit_multi_snoops            0                       # Number of snoops hitting in the snoop filter with multiple (>1) holders of the requested data.
system.membus.snoop_filter.hit_single_requests       199519                       # Number of requests hitting in the snoop filter with a single holder of the requested data.
system.membus.snoop_filter.hit_single_snoops            0                       # Number of snoops hitting in the snoop filter with a single holder of the requested data.
system.membus.snoop_filter.tot_requests        403487                       # Total number of requests made to the snoop filter.
system.membus.snoop_filter.tot_snoops               0                       # Total number of snoops made to the snoop filter.
system.tol2bus.snoop_filter.hit_multi_requests          111                       # Number of requests hitting in the snoop filter with multiple (>1) holders of the requested data.
system.tol2bus.snoop_filter.hit_multi_snoops            9                       # Number of snoops hitting in the snoop filter with multiple (>1) holders of the requested data.
system.tol2bus.snoop_filter.hit_single_requests       627899                       # Number of requests hitting in the snoop filter with a single holder of the requested data.
system.tol2bus.snoop_filter.hit_single_snoops         1788                       # Number of snoops hitting in the snoop filter with a single holder of the requested data.
system.tol2bus.snoop_filter.tot_requests      1256681                       # Total number of requests made to the snoop filter.
system.tol2bus.snoop_filter.tot_snoops           1797                       # Total number of snoops made to the snoop filter.
system.membus.pwrStateResidencyTicks::UNDEFINED 163367337000                       # Cumulative time (in ticks) in various power states
system.membus.trans_dist::ReadResp              73717                       # Transaction distribution
system.membus.trans_dist::WritebackDirty       151445                       # Transaction distribution
system.membus.trans_dist::CleanEvict            48053                       # Transaction distribution
system.membus.trans_dist::ReadExReq            130272                       # Transaction distribution
system.membus.trans_dist::ReadExResp           130271                       # Transaction distribution
system.membus.trans_dist::ReadSharedReq         73717                       # Transaction distribution
system.membus.pkt_count_system.l2.mem_side::system.mem_ctrls.port       607475                       # Packet count per connected master and slave (bytes)
system.membus.pkt_count::total                 607475                       # Packet count per connected master and slave (bytes)
system.membus.pkt_size_system.l2.mem_side::system.mem_ctrls.port     45495424                       # Cumulative packet size per connected master and slave (bytes)
system.membus.pkt_size::total                45495424                       # Cumulative packet size per connected master and slave (bytes)
system.membus.snoops                                0                       # Total snoops (count)
system.membus.snoopTraffic                          0                       # Total snoop traffic (bytes)
system.membus.snoop_fanout::samples            203989                       # Request fanout histogram
system.membus.snoop_fanout::mean                    0                       # Request fanout histogram
system.membus.snoop_fanout::stdev                   0                       # Request fanout histogram
system.membus.snoop_fanout::underflows              0      0.00%      0.00% # Request fanout histogram
system.membus.snoop_fanout::0                  203989    100.00%    100.00% # Request fanout histogram
system.membus.snoop_fanout::1                       0      0.00%    100.00% # Request fanout histogram
system.membus.snoop_fanout::overflows               0      0.00%    100.00% # Request fanout histogram
system.membus.snoop_fanout::min_value               0                       # Request fanout histogram
system.membus.snoop_fanout::max_value               0                       # Request fanout histogram
system.membus.snoop_fanout::total              203989                       # Request fanout histogram
system.membus.respLayer1.occupancy         1923529250                       # Layer occupancy (ticks)
system.membus.respLayer1.utilization              1.2                       # Layer utilization (%)
system.membus.reqLayer0.occupancy          1615047000                       # Layer occupancy (ticks)
system.membus.reqLayer0.utilization               1.0                       # Layer utilization (%)
system.tol2bus.pwrStateResidencyTicks::UNDEFINED 163367337000                       # Cumulative time (in ticks) in various power states
system.tol2bus.trans_dist::ReadResp            352709                       # Transaction distribution
system.tol2bus.trans_dist::WritebackDirty       717715                       # Transaction distribution
system.tol2bus.trans_dist::WritebackClean           53                       # Transaction distribution
system.tol2bus.trans_dist::CleanEvict          111354                       # Transaction distribution
system.tol2bus.trans_dist::ReadExReq           276074                       # Transaction distribution
system.tol2bus.trans_dist::ReadExResp          276073                       # Transaction distribution
system.tol2bus.trans_dist::ReadCleanReq           425                       # Transaction distribution
system.tol2bus.trans_dist::ReadSharedReq       352284                       # Transaction distribution
system.tol2bus.pkt_count_system.cpu.icache.mem_side::system.l2.cpu_side          903                       # Packet count per connected master and slave (bytes)
system.tol2bus.pkt_count_system.cpu.dcache.mem_side::system.l2.cpu_side      1884560                       # Packet count per connected master and slave (bytes)
system.tol2bus.pkt_count::total               1885463                       # Packet count per connected master and slave (bytes)
system.tol2bus.pkt_size_system.cpu.icache.mem_side::system.l2.cpu_side        61184                       # Cumulative packet size per connected master and slave (bytes)
system.tol2bus.pkt_size_system.cpu.dcache.mem_side::system.l2.cpu_side    152912256                       # Cumulative packet size per connected master and slave (bytes)
system.tol2bus.pkt_size::total              152973440                       # Cumulative packet size per connected master and slave (bytes)
system.tol2bus.snoops                          201224                       # Total snoops (count)
system.tol2bus.snoopTraffic                  19384960                       # Total snoop traffic (bytes)
system.tol2bus.snoop_fanout::samples           830007                       # Request fanout histogram
system.tol2bus.snoop_fanout::mean            0.002311                       # Request fanout histogram
system.tol2bus.snoop_fanout::stdev           0.048241                       # Request fanout histogram
system.tol2bus.snoop_fanout::underflows             0      0.00%      0.00% # Request fanout histogram
system.tol2bus.snoop_fanout::0                 828098     99.77%     99.77% # Request fanout histogram
system.tol2bus.snoop_fanout::1                   1900      0.23%    100.00% # Request fanout histogram
system.tol2bus.snoop_fanout::2                      9      0.00%    100.00% # Request fanout histogram
system.tol2bus.snoop_fanout::overflows              0      0.00%    100.00% # Request fanout histogram
system.tol2bus.snoop_fanout::min_value              0                       # Request fanout histogram
system.tol2bus.snoop_fanout::max_value              2                       # Request fanout histogram
system.tol2bus.snoop_fanout::total             830007                       # Request fanout histogram
system.tol2bus.reqLayer0.occupancy         3521973000                       # Layer occupancy (ticks)
system.tol2bus.reqLayer0.utilization              2.2                       # Layer utilization (%)
system.tol2bus.respLayer1.occupancy        3141789995                       # Layer occupancy (ticks)
system.tol2bus.respLayer1.utilization             1.9                       # Layer utilization (%)
system.tol2bus.respLayer0.occupancy           2125000                       # Layer occupancy (ticks)
system.tol2bus.respLayer0.utilization             0.0                       # Layer utilization (%)
system.voltage_domain.voltage                       1                       # Voltage in Volts
system.clk_domain.clock                          1000                       # Clock period in ticks
system.l2.pwrStateResidencyTicks::UNDEFINED 163367337000                       # Cumulative time (in ticks) in various power states
system.l2.demand_hits::.cpu.inst                   20                       # number of demand (read+write) hits
system.l2.demand_hits::.cpu.data               424769                       # number of demand (read+write) hits
system.l2.demand_hits::total                   424789                       # number of demand (read+write) hits
system.l2.overall_hits::.cpu.inst                  20                       # number of overall hits
system.l2.overall_hits::.cpu.data              424769                       # number of overall hits
system.l2.overall_hits::total                  424789                       # number of overall hits
system.l2.demand_misses::.cpu.inst                405                       # number of demand (read+write) misses
system.l2.demand_misses::.cpu.data             203589                       # number of demand (read+write) misses
system.l2.demand_misses::total                 203994                       # number of demand (read+write) misses
system.l2.overall_misses::.cpu.inst               405                       # number of overall misses
system.l2.overall_misses::.cpu.data            203589                       # number of overall misses
system.l2.overall_misses::total                203994                       # number of overall misses
system.l2.demand_miss_latency::.cpu.inst     43619000                       # number of demand (read+write) miss cycles
system.l2.demand_miss_latency::.cpu.data  23150068000                       # number of demand (read+write) miss cycles
system.l2.demand_miss_latency::total      23193687000                       # number of demand (read+write) miss cycles
system.l2.overall_miss_latency::.cpu.inst     43619000                       # number of overall miss cycles
system.l2.overall_miss_latency::.cpu.data  23150068000                       # number of overall miss cycles
system.l2.overall_miss_latency::total     23193687000                       # number of overall miss cycles
system.l2.demand_accesses::.cpu.inst              425                       # number of demand (read+write) accesses
system.l2.demand_accesses::.cpu.data           628358                       # number of demand (read+write) accesses
system.l2.demand_accesses::total               628783                       # number of demand (read+write) accesses
system.l2.overall_accesses::.cpu.inst             425                       # number of overall (read+write) accesses
system.l2.overall_accesses::.cpu.data          628358                       # number of overall (read+write) accesses
system.l2.overall_accesses::total              628783                       # number of overall (read+write) accesses
system.l2.demand_miss_rate::.cpu.inst        0.952941                       # miss rate for demand accesses
system.l2.demand_miss_rate::.cpu.data        0.324002                       # miss rate for demand accesses
system.l2.demand_miss_rate::total            0.324427                       # miss rate for demand accesses
system.l2.overall_miss_rate::.cpu.inst       0.952941                       # miss rate for overall accesses
system.l2.overall_miss_rate::.cpu.data       0.324002                       # miss rate for overall accesses
system.l2.overall_miss_rate::total           0.324427                       # miss rate for overall accesses
system.l2.demand_avg_miss_latency::.cpu.inst 107701.234568                       # average overall miss latency
system.l2.demand_avg_miss_latency::.cpu.data 113709.817328                       # average overall miss latency
system.l2.demand_avg_miss_latency::total 113697.888173                       # average overall miss latency
system.l2.overall_avg_miss_latency::.cpu.inst 107701.234568                       # average overall miss latency
system.l2.overall_avg_miss_latency::.cpu.data 113709.817328                       # average overall miss latency
system.l2.overall_avg_miss_latency::total 113697.888173                       # average overall miss latency
system.l2.blocked_cycles::no_mshrs                  0                       # number of cycles access was blocked
system.l2.blocked_cycles::no_targets                0                       # number of cycles access was blocked
system.l2.blocked::no_mshrs                         0                       # number of cycles access was blocked
system.l2.blocked::no_targets                       0                       # number of cycles access was blocked
system.l2.avg_blocked_cycles::no_mshrs            nan                       # average number of cycles each access was blocked
system.l2.avg_blocked_cycles::no_targets          nan                       # average number of cycles each access was blocked
system.l2.writebacks::.writebacks              151445                       # number of writebacks
system.l2.writebacks::total                    151445                       # number of writebacks
system.l2.demand_mshr_hits::.cpu.data               5                       # number of demand (read+write) MSHR hits
system.l2.demand_mshr_hits::total                   5                       # number of demand (read+write) MSHR hits
system.l2.overall_mshr_hits::.cpu.data              5                       # number of overall MSHR hits
system.l2.overall_mshr_hits::total                  5                       # number of overall MSHR hits
system.l2.demand_mshr_misses::.cpu.inst           405                       # number of demand (read+write) MSHR misses
system.l2.demand_mshr_misses::.cpu.data        203584                       # number of demand (read+write) MSHR misses
system.l2.demand_mshr_misses::total            203989                       # number of demand (read+write) MSHR misses
system.l2.overall_mshr_misses::.cpu.inst          405                       # number of overall MSHR misses
system.l2.overall_mshr_misses::.cpu.data       203584                       # number of overall MSHR misses
system.l2.overall_mshr_misses::total           203989                       # number of overall MSHR misses
system.l2.demand_mshr_miss_latency::.cpu.inst     35519000                       # number of demand (read+write) MSHR miss cycles
system.l2.demand_mshr_miss_latency::.cpu.data  19077970000                       # number of demand (read+write) MSHR miss cycles
system.l2.demand_mshr_miss_latency::total  19113489000                       # number of demand (read+write) MSHR miss cycles
system.l2.overall_mshr_miss_latency::.cpu.inst     35519000                       # number of overall MSHR miss cycles
system.l2.overall_mshr_miss_latency::.cpu.data  19077970000                       # number of overall MSHR miss cycles
system.l2.overall_mshr_miss_latency::total  19113489000                       # number of overall MSHR miss cycles
system.l2.demand_mshr_miss_rate::.cpu.inst     0.952941                       # mshr miss rate for demand accesses
system.l2.demand_mshr_miss_rate::.cpu.data     0.323994                       # mshr miss rate for demand accesses
system.l2.demand_mshr_miss_rate::total       0.324419                       # mshr miss rate for demand accesses
system.l2.overall_mshr_miss_rate::.cpu.inst     0.952941                       # mshr miss rate for overall accesses
system.l2.overall_mshr_miss_rate::.cpu.data     0.323994                       # mshr miss rate for overall accesses
system.l2.overall_mshr_miss_rate::total      0.324419                       # mshr miss rate for overall accesses
system.l2.demand_avg_mshr_miss_latency::.cpu.inst 87701.234568                       # average overall mshr miss latency
system.l2.demand_avg_mshr_miss_latency::.cpu.data 93710.556822                       # average overall mshr miss latency
system.l2.demand_avg_mshr_miss_latency::total 93698.625906                       # average overall mshr miss latency
system.l2.overall_avg_mshr_miss_latency::.cpu.inst 87701.234568                       # average overall mshr miss latency
system.l2.overall_avg_mshr_miss_latency::.cpu.data 93710.556822                       # average overall mshr miss latency
system.l2.overall_avg_mshr_miss_latency::total 93698.625906                       # average overall mshr miss latency
system.l2.replacements                         201224                       # number of replacements
system.l2.WritebackDirty_hits::.writebacks       566270                       # number of WritebackDirty hits
system.l2.WritebackDirty_hits::total           566270                       # number of WritebackDirty hits
system.l2.WritebackDirty_accesses::.writebacks       566270                       # number of WritebackDirty accesses(hits+misses)
system.l2.WritebackDirty_accesses::total       566270                       # number of WritebackDirty accesses(hits+misses)
system.l2.WritebackClean_hits::.writebacks           49                       # number of WritebackClean hits
system.l2.WritebackClean_hits::total               49                       # number of WritebackClean hits
system.l2.WritebackClean_accesses::.writebacks           49                       # number of WritebackClean accesses(hits+misses)
system.l2.WritebackClean_accesses::total           49                       # number of WritebackClean accesses(hits+misses)
system.l2.CleanEvict_mshr_misses::.writebacks           71                       # number of CleanEvict MSHR misses
system.l2.CleanEvict_mshr_misses::total            71                       # number of CleanEvict MSHR misses
system.l2.CleanEvict_mshr_miss_rate::.writebacks          inf                       # mshr miss rate for CleanEvict accesses
system.l2.CleanEvict_mshr_miss_rate::total          inf                       # mshr miss rate for CleanEvict accesses
system.l2.ReadExReq_hits::.cpu.data            145802                       # number of ReadExReq hits
system.l2.ReadExReq_hits::total                145802                       # number of ReadExReq hits
system.l2.ReadExReq_misses::.cpu.data          130272                       # number of ReadExReq misses
system.l2.ReadExReq_misses::total              130272                       # number of ReadExReq misses
system.l2.ReadExReq_miss_latency::.cpu.data  15028379000                       # number of ReadExReq miss cycles
system.l2.ReadExReq_miss_latency::total   15028379000                       # number of ReadExReq miss cycles
system.l2.ReadExReq_accesses::.cpu.data        276074                       # number of ReadExReq accesses(hits+misses)
system.l2.ReadExReq_accesses::total            276074                       # number of ReadExReq accesses(hits+misses)
system.l2.ReadExReq_miss_rate::.cpu.data     0.471873                       # miss rate for ReadExReq accesses
system.l2.ReadExReq_miss_rate::total         0.471873                       # miss rate for ReadExReq accesses
system.l2.ReadExReq_avg_miss_latency::.cpu.data 115361.543540                       # average ReadExReq miss latency
system.l2.ReadExReq_avg_miss_latency::total 115361.543540                       # average ReadExReq miss latency
system.l2.ReadExReq_mshr_misses::.cpu.data       130272                       # number of ReadExReq MSHR misses
system.l2.ReadExReq_mshr_misses::total         130272                       # number of ReadExReq MSHR misses
system.l2.ReadExReq_mshr_miss_latency::.cpu.data  12422959000                       # number of ReadExReq MSHR miss cycles
system.l2.ReadExReq_mshr_miss_latency::total  12422959000                       # number of ReadExReq MSHR miss cycles
system.l2.ReadExReq_mshr_miss_rate::.cpu.data     0.471873                       # mshr miss rate for ReadExReq accesses
system.l2.ReadExReq_mshr_miss_rate::total     0.471873                       # mshr miss rate for ReadExReq accesses
system.l2.ReadExReq_avg_mshr_miss_latency::.cpu.data 95361.697065                       # average ReadExReq mshr miss latency
system.l2.ReadExReq_avg_mshr_miss_latency::total 95361.697065                       # average ReadExReq mshr miss latency
system.l2.ReadCleanReq_hits::.cpu.inst             20                       # number of ReadCleanReq hits
system.l2.ReadCleanReq_hits::total                 20                       # number of ReadCleanReq hits
system.l2.ReadCleanReq_misses::.cpu.inst          405                       # number of ReadCleanReq misses
system.l2.ReadCleanReq_misses::total              405                       # number of ReadCleanReq misses
system.l2.ReadCleanReq_miss_latency::.cpu.inst     43619000                       # number of ReadCleanReq miss cycles
system.l2.ReadCleanReq_miss_latency::total     43619000                       # number of ReadCleanReq miss cycles
system.l2.ReadCleanReq_accesses::.cpu.inst          425                       # number of ReadCleanReq accesses(hits+misses)
system.l2.ReadCleanReq_accesses::total            425                       # number of ReadCleanReq accesses(hits+misses)
system.l2.ReadCleanReq_miss_rate::.cpu.inst     0.952941                       # miss rate for ReadCleanReq accesses
system.l2.ReadCleanReq_miss_rate::total      0.952941                       # miss rate for ReadCleanReq accesses
system.l2.ReadCleanReq_avg_miss_latency::.cpu.inst 107701.234568                       # average ReadCleanReq miss latency
system.l2.ReadCleanReq_avg_miss_latency::total 107701.234568                       # average ReadCleanReq miss latency
system.l2.ReadCleanReq_mshr_misses::.cpu.inst          405                       # number of ReadCleanReq MSHR misses
system.l2.ReadCleanReq_mshr_misses::total          405                       # number of ReadCleanReq MSHR misses
system.l2.ReadCleanReq_mshr_miss_latency::.cpu.inst     35519000                       # number of ReadCleanReq MSHR miss cycles
system.l2.ReadCleanReq_mshr_miss_latency::total     35519000                       # number of ReadCleanReq MSHR miss cycles
system.l2.ReadCleanReq_mshr_miss_rate::.cpu.inst     0.952941                       # mshr miss rate for ReadCleanReq accesses
system.l2.ReadCleanReq_mshr_miss_rate::total     0.952941                       # mshr miss rate for ReadCleanReq accesses
system.l2.ReadCleanReq_avg_mshr_miss_latency::.cpu.inst 87701.234568                       # average ReadCleanReq mshr miss latency
system.l2.ReadCleanReq_avg_mshr_miss_latency::total 87701.234568                       # average ReadCleanReq mshr miss latency
system.l2.ReadSharedReq_hits::.cpu.data        278967                       # number of ReadSharedReq hits
system.l2.ReadSharedReq_hits::total            278967                       # number of ReadSharedReq hits
system.l2.ReadSharedReq_misses::.cpu.data        73317                       # number of ReadSharedReq misses
system.l2.ReadSharedReq_misses::total           73317                       # number of ReadSharedReq misses
system.l2.ReadSharedReq_miss_latency::.cpu.data   8121689000                       # number of ReadSharedReq miss cycles
system.l2.ReadSharedReq_miss_latency::total   8121689000                       # number of ReadSharedReq miss cycles
system.l2.ReadSharedReq_accesses::.cpu.data       352284                       # number of ReadSharedReq accesses(hits+misses)
system.l2.ReadSharedReq_accesses::total        352284                       # number of ReadSharedReq accesses(hits+misses)
system.l2.ReadSharedReq_miss_rate::.cpu.data     0.208119                       # miss rate for ReadSharedReq accesses
system.l2.ReadSharedReq_miss_rate::total     0.208119                       # miss rate for ReadSharedReq accesses
system.l2.ReadSharedReq_avg_miss_latency::.cpu.data 110774.977154                       # average ReadSharedReq miss latency
system.l2.ReadSharedReq_avg_miss_latency::total 110774.977154                       # average ReadSharedReq miss latency
system.l2.ReadSharedReq_mshr_hits::.cpu.data            5                       # number of ReadSharedReq MSHR hits
system.l2.ReadSharedReq_mshr_hits::total            5                       # number of ReadSharedReq MSHR hits
system.l2.ReadSharedReq_mshr_misses::.cpu.data        73312                       # number of ReadSharedReq MSHR misses
system.l2.ReadSharedReq_mshr_misses::total        73312                       # number of ReadSharedReq MSHR misses
system.l2.ReadSharedReq_mshr_miss_latency::.cpu.data   6655011000                       # number of ReadSharedReq MSHR miss cycles
system.l2.ReadSharedReq_mshr_miss_latency::total   6655011000                       # number of ReadSharedReq MSHR miss cycles
system.l2.ReadSharedReq_mshr_miss_rate::.cpu.data     0.208105                       # mshr miss rate for ReadSharedReq accesses
system.l2.ReadSharedReq_mshr_miss_rate::total     0.208105                       # mshr miss rate for ReadSharedReq accesses
system.l2.ReadSharedReq_avg_mshr_miss_latency::.cpu.data 90776.557726                       # average ReadSharedReq mshr miss latency
system.l2.ReadSharedReq_avg_mshr_miss_latency::total 90776.557726                       # average ReadSharedReq mshr miss latency
system.l2.tags.pwrStateResidencyTicks::UNDEFINED 163367337000                       # Cumulative time (in ticks) in various power states
system.l2.tags.tagsinuse                  4043.179625                       # Cycle average of tags in use
system.l2.tags.total_refs                     1256493                       # Total number of references to valid blocks.
system.l2.tags.sampled_refs                    205320                       # Sample count of references to valid blocks.
system.l2.tags.avg_refs                      6.119681                       # Average number of references to valid blocks.
system.l2.tags.warmup_cycle                     92000                       # Cycle when the warmup percentage was hit.
system.l2.tags.occ_blocks::.writebacks      20.039015                       # Average occupied blocks per requestor
system.l2.tags.occ_blocks::.cpu.inst        13.317813                       # Average occupied blocks per requestor
system.l2.tags.occ_blocks::.cpu.data      4009.822797                       # Average occupied blocks per requestor
system.l2.tags.occ_percent::.writebacks      0.004892                       # Average percentage of cache occupancy
system.l2.tags.occ_percent::.cpu.inst        0.003251                       # Average percentage of cache occupancy
system.l2.tags.occ_percent::.cpu.data        0.978961                       # Average percentage of cache occupancy
system.l2.tags.occ_percent::total            0.987104                       # Average percentage of cache occupancy
system.l2.tags.occ_task_id_blocks::1024          4096                       # Occupied blocks per task id
system.l2.tags.age_task_id_blocks_1024::0           94                       # Occupied blocks per task id
system.l2.tags.age_task_id_blocks_1024::1          353                       # Occupied blocks per task id
system.l2.tags.age_task_id_blocks_1024::2         1988                       # Occupied blocks per task id
system.l2.tags.age_task_id_blocks_1024::3         1634                       # Occupied blocks per task id
system.l2.tags.age_task_id_blocks_1024::4           27                       # Occupied blocks per task id
system.l2.tags.occ_task_id_percent::1024            1                       # Percentage of cache occupancy per task id
system.l2.tags.tag_accesses                   5231600                       # Number of tag accesses
system.l2.tags.data_accesses                  5231600                       # Number of data accesses
system.cpu_voltage_domain.voltage                   1                       # Voltage in Volts
system.mem_ctrls.pwrStateResidencyTicks::UNDEFINED 163367337000                       # Cumulative time (in ticks) in various power states
system.mem_ctrls.bytes_read::.cpu.inst          51840                       # Number of bytes read from this memory
system.mem_ctrls.bytes_read::.cpu.data       26058752                       # Number of bytes read from this memory
system.mem_ctrls.bytes_read::total           26110592                       # Number of bytes read from this memory
system.mem_ctrls.bytes_inst_read::.cpu.inst        51840                       # Number of instructions bytes read from this memory
system.mem_ctrls.bytes_inst_read::total         51840                       # Number of instructions bytes read from this memory
system.mem_ctrls.bytes_written::.writebacks     19384960                       # Number of bytes written to this memory
system.mem_ctrls.bytes_written::total        19384960                       # Number of bytes written to this memory
system.mem_ctrls.num_reads::.cpu.inst             405                       # Number of read requests responded to by this memory
system.mem_ctrls.num_reads::.cpu.data          203584                       # Number of read requests responded to by this memory
system.mem_ctrls.num_reads::total              203989                       # Number of read requests responded to by this memory
system.mem_ctrls.num_writes::.writebacks       151445                       # Number of write requests responded to by this memory
system.mem_ctrls.num_writes::total             151445                       # Number of write requests responded to by this memory
system.mem_ctrls.bw_read::.cpu.inst            317322                       # Total read bandwidth from this memory (bytes/s)
system.mem_ctrls.bw_read::.cpu.data         159510172                       # Total read bandwidth from this memory (bytes/s)
system.mem_ctrls.bw_read::total             159827494                       # Total read bandwidth from this memory (bytes/s)
system.mem_ctrls.bw_inst_read::.cpu.inst       317322                       # Instruction read bandwidth from this memory (bytes/s)
system.mem_ctrls.bw_inst_read::total           317322                       # Instruction read bandwidth from this memory (bytes/s)
system.mem_ctrls.bw_write::.writebacks      118658726                       # Write bandwidth from this memory (bytes/s)
system.mem_ctrls.bw_write::total            118658726                       # Write bandwidth from this memory (bytes/s)
system.mem_ctrls.bw_total::.writebacks      118658726                       # Total bandwidth to/from this memory (bytes/s)
system.mem_ctrls.bw_total::.cpu.inst           317322                       # Total bandwidth to/from this memory (bytes/s)
system.mem_ctrls.bw_total::.cpu.data        159510172                       # Total bandwidth to/from this memory (bytes/s)
system.mem_ctrls.bw_total::total            278486219                       # Total bandwidth to/from this memory (bytes/s)
system.mem_ctrls.avgPriority_.writebacks::samples    302890.00                       # Average QoS priority value for accepted requests
system.mem_ctrls.avgPriority_.cpu.inst::samples       810.00                       # Average QoS priority value for accepted requests
system.mem_ctrls.avgPriority_.cpu.data::samples    406023.00                       # Average QoS priority value for accepted requests
system.mem_ctrls.priorityMinLatency      0.000000018750                       # per QoS priority minimum request to response latency (s)
system.mem_ctrls.priorityMaxLatency      0.039230306500                       # per QoS priority maximum request to response latency (s)
system.mem_ctrls.numReadWriteTurnArounds        17569                       # Number of turnarounds from READ to WRITE
system.mem_ctrls.numWriteReadTurnArounds        17569                       # Number of turnarounds from WRITE to READ
system.mem_ctrls.numStayReadState              787039                       # Number of times bus staying in READ state
system.mem_ctrls.numStayWriteState             285633                       # Number of times bus staying in WRITE state
system.mem_ctrls.readReqs                      203989                       # Number of read requests accepted
system.mem_ctrls.writeReqs                     151445                       # Number of write requests accepted
system.mem_ctrls.readBursts                    407978                       # Number of DRAM read bursts, including those serviced by the write queue
system.mem_ctrls.writeBursts                   302890                       # Number of DRAM write bursts, including those merged in the write queue
system.mem_ctrls.servicedByWrQ                   1145                       # Number of DRAM read bursts serviced by the write queue
system.mem_ctrls.mergedWrBursts                     0                       # Number of DRAM write bursts merged with an existing one
system.mem_ctrls.neitherReadNorWriteReqs            0                       # Number of requests that are neither read nor write
system.mem_ctrls.perBankRdBursts::0             26906                       # Per bank write bursts
system.mem_ctrls.perBankRdBursts::1             25670                       # Per bank write bursts
system.mem_ctrls.perBankRdBursts::2             24936                       # Per bank write bursts
system.mem_ctrls.perBankRdBursts::3             26537                       # Per bank write bursts
system.mem_ctrls.perBankRdBursts::4             29116                       # Per bank write bursts
system.mem_ctrls.perBankRdBursts::5             27018                       # Per bank write bursts
system.mem_ctrls.perBankRdBursts::6             24152                       # Per bank write bursts
system.mem_ctrls.perBankRdBursts::7             24237                       # Per bank write bursts
system.mem_ctrls.perBankRdBursts::8             26767                       # Per bank write bursts
system.mem_ctrls.perBankRdBursts::9             25771                       # Per bank write bursts
system.mem_ctrls.perBankRdBursts::10            23315                       # Per bank write bursts
system.mem_ctrls.perBankRdBursts::11            22722                       # Per bank write bursts
system.mem_ctrls.perBankRdBursts::12            24684                       # Per bank write bursts
system.mem_ctrls.perBankRdBursts::13            25656                       # Per bank write bursts
system.mem_ctrls.perBankRdBursts::14            23801                       # Per bank write bursts
system.mem_ctrls.perBankRdBursts::15            25545                       # Per bank write bursts
system.mem_ctrls.perBankWrBursts::0             20148                       # Per bank write bursts
system.mem_ctrls.perBankWrBursts::1             18928                       # Per bank write bursts
system.mem_ctrls.perBankWrBursts::2             18252                       # Per bank write bursts
system.mem_ctrls.perBankWrBursts::3             19970                       # Per bank write bursts
system.mem_ctrls.perBankWrBursts::4             22974                       # Per bank write bursts
system.mem_ctrls.perBankWrBursts::5             20620                       # Per bank write bursts
system.mem_ctrls.perBankWrBursts::6             17632                       # Per bank write bursts
system.mem_ctrls.perBankWrBursts::7             17660                       # Per bank write bursts
system.mem_ctrls.perBankWrBursts::8             20208                       # Per bank write bursts
system.mem_ctrls.perBankWrBursts::9             19354                       # Per bank write bursts
system.mem_ctrls.perBankWrBursts::10            17112                       # Per bank write bursts
system.mem_ctrls.perBankWrBursts::11            16613                       # Per bank write bursts
system.mem_ctrls.perBankWrBursts::12            18142                       # Per bank write bursts
system.mem_ctrls.perBankWrBursts::13            19036                       # Per bank write bursts
system.mem_ctrls.perBankWrBursts::14            17178                       # Per bank write bursts
system.mem_ctrls.perBankWrBursts::15            19038                       # Per bank write bursts
system.mem_ctrls.avgRdQLen                       2.04                       # Average read queue length when enqueuing
system.mem_ctrls.avgWrQLen                      25.58                       # Average write queue length when enqueuing
system.mem_ctrls.totQLat                   8580275250                       # Total ticks spent queuing
system.mem_ctrls.totBusLat                 2034165000                       # Total ticks spent in databus transfers
system.mem_ctrls.totMemAccLat             16208394000                       # Total ticks spent from burst creation until serviced by the DRAM
system.mem_ctrls.avgQLat                     21090.41                       # Average queueing delay per DRAM burst
system.mem_ctrls.avgBusLat                    5000.00                       # Average bus latency per DRAM burst
system.mem_ctrls.avgMemAccLat                39840.41                       # Average memory access latency per DRAM burst
system.mem_ctrls.numRdRetry                         0                       # Number of times read queue was full causing retry
system.mem_ctrls.numWrRetry                         0                       # Number of times write queue was full causing retry
system.mem_ctrls.readRowHits                   291693                       # Number of row buffer hits during reads
system.mem_ctrls.writeRowHits                  205147                       # Number of row buffer hits during writes
system.mem_ctrls.readRowHitRate                 71.70                       # Row buffer hit rate for reads
system.mem_ctrls.writeRowHitRate                67.73                       # Row buffer hit rate for writes
system.mem_ctrls.readPktSize::0                     0                       # Read request sizes (log2)
system.mem_ctrls.readPktSize::1                     0                       # Read request sizes (log2)
system.mem_ctrls.readPktSize::2                     0                       # Read request sizes (log2)
system.mem_ctrls.readPktSize::3                     0                       # Read request sizes (log2)
system.mem_ctrls.readPktSize::4                     0                       # Read request sizes (log2)
system.mem_ctrls.readPktSize::5                     0                       # Read request sizes (log2)
system.mem_ctrls.readPktSize::6                407978                       # Read request sizes (log2)
system.mem_ctrls.writePktSize::0                    0                       # Write request sizes (log2)
system.mem_ctrls.writePktSize::1                    0                       # Write request sizes (log2)
system.mem_ctrls.writePktSize::2                    0                       # Write request sizes (log2)
system.mem_ctrls.writePktSize::3                    0                       # Write request sizes (log2)
system.mem_ctrls.writePktSize::4                    0                       # Write request sizes (log2)
system.mem_ctrls.writePktSize::5                    0                       # Write request sizes (log2)
system.mem_ctrls.writePktSize::6               302890                       # Write request sizes (log2)
system.mem_ctrls.rdQLenPdf::0                  182107                       # What read queue length does an incoming req see
system.mem_ctrls.rdQLenPdf::1                  191589                       # What read queue length does an incoming req see
system.mem_ctrls.rdQLenPdf::2                   21325                       # What read queue length does an incoming req see
system.mem_ctrls.rdQLenPdf::3                   11804                       # What read queue length does an incoming req see
system.mem_ctrls.rdQLenPdf::4                       3                       # What read queue length does an incoming req see
system.mem_ctrls.rdQLenPdf::5                       3                       # What read queue length does an incoming req see
system.mem_ctrls.rdQLenPdf::6                       1                       # What read queue length does an incoming req see
system.mem_ctrls.rdQLenPdf::7                       1                       # What read queue length does an incoming req see
system.mem_ctrls.rdQLenPdf::8                       0                       # What read queue length does an incoming req see
system.mem_ctrls.rdQLenPdf::9                       0                       # What read queue length does an incoming req see
system.mem_ctrls.rdQLenPdf::10                      0                       # What read queue length does an incoming req see
system.mem_ctrls.rdQLenPdf::11                      0                       # What read queue length does an incoming req see
system.mem_ctrls.rdQLenPdf::12                      0                       # What read queue length does an incoming req see
system.mem_ctrls.rdQLenPdf::13                      0                       # What read queue length does an incoming req see
system.mem_ctrls.rdQLenPdf::14                      0                       # What read queue length does an incoming req see
system.mem_ctrls.rdQLenPdf::15                      0                       # What read queue length does an incoming req see
system.mem_ctrls.rdQLenPdf::16                      0                       # What read queue length does an incoming req see
system.mem_ctrls.rdQLenPdf::17                      0                       # What read queue length does an incoming req see
system.mem_ctrls.rdQLenPdf::18                      0                       # What read queue length does an incoming req see
system.mem_ctrls.rdQLenPdf::19                      0                       # What read queue length does an incoming req see
system.mem_ctrls.rdQLenPdf::20                      0                       # What read queue length does an incoming req see
system.mem_ctrls.rdQLenPdf::21                      0                       # What read queue length does an incoming req see
system.mem_ctrls.rdQLenPdf::22                      0                       # What read queue length does an incoming req see
system.mem_ctrls.rdQLenPdf::23                      0                       # What read queue length does an incoming req see
system.mem_ctrls.rdQLenPdf::24                      0                       # What read queue length does an incoming req see
system.mem_ctrls.rdQLenPdf::25                      0                       # What read queue length does an incoming req see
system.mem_ctrls.rdQLenPdf::26                      0                       # What read queue length does an incoming req see
system.mem_ctrls.rdQLenPdf::27                      0                       # What read queue length does an incoming req see
system.mem_ctrls.rdQLenPdf::28                      0                       # What read queue length does an incoming req see
system.mem_ctrls.rdQLenPdf::29                      0                       # What read queue length does an incoming req see
system.mem_ctrls.rdQLenPdf::30                      0                       # What read queue length does an incoming req see
system.mem_ctrls.rdQLenPdf::31                      0                       # What read queue length does an incoming req see
system.mem_ctrls.wrQLenPdf::0                       1                       # What write queue length does an incoming req see
system.mem_ctrls.wrQLenPdf::1                       1                       # What write queue length does an incoming req see
system.mem_ctrls.wrQLenPdf::2                       1                       # What write queue length does an incoming req see
system.mem_ctrls.wrQLenPdf::3                       1                       # What write queue length does an incoming req see
system.mem_ctrls.wrQLenPdf::4                       1                       # What write queue length does an incoming req see
system.mem_ctrls.wrQLenPdf::5                       1                       # What write queue length does an incoming req see
system.mem_ctrls.wrQLenPdf::6                       1                       # What write queue length does an incoming req see
system.mem_ctrls.wrQLenPdf::7                       1                       # What write queue length does an incoming req see
system.mem_ctrls.wrQLenPdf::8                       1                       # What write queue length does an incoming req see
system.mem_ctrls.wrQLenPdf::9                       1                       # What write queue length does an incoming req see
system.mem_ctrls.wrQLenPdf::10                      1                       # What write queue length does an incoming req see
system.mem_ctrls.wrQLenPdf::11                      1                       # What write queue length does an incoming req see
system.mem_ctrls.wrQLenPdf::12                      1                       # What write queue length does an incoming req see
system.mem_ctrls.wrQLenPdf::13                      1                       # What write queue length does an incoming req see
system.mem_ctrls.wrQLenPdf::14                      1                       # What write queue length does an incoming req see
system.mem_ctrls.wrQLenPdf::15                   9139                       # What write queue length does an incoming req see
system.mem_ctrls.wrQLenPdf::16                   9729                       # What write queue length does an incoming req see
system.mem_ctrls.wrQLenPdf::17                  12840                       # What write queue length does an incoming req see
system.mem_ctrls.wrQLenPdf::18                  17731                       # What write queue length does an incoming req see
system.mem_ctrls.wrQLenPdf::19                  17764                       # What write queue length does an incoming req see
system.mem_ctrls.wrQLenPdf::20                  17784                       # What write queue length does an incoming req see
system.mem_ctrls.wrQLenPdf::21                  17851                       # What write queue length does an incoming req see
system.mem_ctrls.wrQLenPdf::22                  17876                       # What write queue length does an incoming req see
system.mem_ctrls.wrQLenPdf::23                  17791                       # What write queue length does an incoming req see
system.mem_ctrls.wrQLenPdf::24                  17763                       # What write queue length does an incoming req see
system.mem_ctrls.wrQLenPdf::25                  17762                       # What write queue length does an incoming req see
system.mem_ctrls.wrQLenPdf::26                  17717                       # What write queue length does an incoming req see
system.mem_ctrls.wrQLenPdf::27                  17683                       # What write queue length does an incoming req see
system.mem_ctrls.wrQLenPdf::28                  17672                       # What write queue length does an incoming req see
system.mem_ctrls.wrQLenPdf::29                  17625                       # What write queue length does an incoming req see
system.mem_ctrls.wrQLenPdf::30                  17585                       # What write queue length does an incoming req see
system.mem_ctrls.wrQLenPdf::31                  17570                       # What write queue length does an incoming req see
system.mem_ctrls.wrQLenPdf::32                  17569                       # What write queue length does an incoming req see
system.mem_ctrls.wrQLenPdf::33                   5411                       # What write queue length does an incoming req see
system.mem_ctrls.wrQLenPdf::34                     11                       # What write queue length does an incoming req see
system.mem_ctrls.wrQLenPdf::35                      2                       # What write queue length does an incoming req see
system.mem_ctrls.wrQLenPdf::36                      0                       # What write queue length does an incoming req see
system.mem_ctrls.wrQLenPdf::37                      0                       # What write queue length does an incoming req see
system.mem_ctrls.wrQLenPdf::38                      0                       # What write queue length does an incoming req see
system.mem_ctrls.wrQLenPdf::39                      0                       # What write queue length does an incoming req see
system.mem_ctrls.wrQLenPdf::40                      0                       # What write queue length does an incoming req see
system.mem_ctrls.wrQLenPdf::41                      0                       # What write queue length does an incoming req see
system.mem_ctrls.wrQLenPdf::42                      0                       # What write queue length does an incoming req see
system.mem_ctrls.wrQLenPdf::43                      0                       # What write queue length does an incoming req see
system.mem_ctrls.wrQLenPdf::44                      0                       # What write queue length does an incoming req see
system.mem_ctrls.wrQLenPdf::45                      0                       # What write queue length does an incoming req see
system.mem_ctrls.wrQLenPdf::46                      0                       # What write queue length does an incoming req see
system.mem_ctrls.wrQLenPdf::47                      0                       # What write queue length does an incoming req see
system.mem_ctrls.wrQLenPdf::48                      0                       # What write queue length does an incoming req see
system.mem_ctrls.wrQLenPdf::49                      0                       # What write queue length does an incoming req see
system.mem_ctrls.wrQLenPdf::50                      0                       # What write queue length does an incoming req see
system.mem_ctrls.wrQLenPdf::51                      0                       # What write queue length does an incoming req see
system.mem_ctrls.wrQLenPdf::52                      0                       # What write queue length does an incoming req see
system.mem_ctrls.wrQLenPdf::53                      0                       # What write queue length does an incoming req see
system.mem_ctrls.wrQLenPdf::54                      0                       # What write queue length does an incoming req see
system.mem_ctrls.wrQLenPdf::55                      0                       # What write queue length does an incoming req see
system.mem_ctrls.wrQLenPdf::56                      0                       # What write queue length does an incoming req see
system.mem_ctrls.wrQLenPdf::57                      0                       # What write queue length does an incoming req see
system.mem_ctrls.wrQLenPdf::58                      0                       # What write queue length does an incoming req see
system.mem_ctrls.wrQLenPdf::59                      0                       # What write queue length does an incoming req see
system.mem_ctrls.wrQLenPdf::60                      0                       # What write queue length does an incoming req see
system.mem_ctrls.wrQLenPdf::61                      0                       # What write queue length does an incoming req see
system.mem_ctrls.wrQLenPdf::62                      0                       # What write queue length does an incoming req see
system.mem_ctrls.wrQLenPdf::63                      0                       # What write queue length does an incoming req see
system.mem_ctrls.bytesPerActivate::samples       212843                       # Bytes accessed per row activation
system.mem_ctrls.bytesPerActivate::mean    213.389061                       # Bytes accessed per row activation
system.mem_ctrls.bytesPerActivate::gmean   158.647572                       # Bytes accessed per row activation
system.mem_ctrls.bytesPerActivate::stdev   241.876659                       # Bytes accessed per row activation
system.mem_ctrls.bytesPerActivate::0-127        12302      5.78%      5.78% # Bytes accessed per row activation
system.mem_ctrls.bytesPerActivate::128-255       161775     76.01%     81.79% # Bytes accessed per row activation
system.mem_ctrls.bytesPerActivate::256-383        15555      7.31%     89.09% # Bytes accessed per row activation
system.mem_ctrls.bytesPerActivate::384-511         3720      1.75%     90.84% # Bytes accessed per row activation
system.mem_ctrls.bytesPerActivate::512-639         1420      0.67%     91.51% # Bytes accessed per row activation
system.mem_ctrls.bytesPerActivate::640-767         1303      0.61%     92.12% # Bytes accessed per row activation
system.mem_ctrls.bytesPerActivate::768-895         1066      0.50%     92.62% # Bytes accessed per row activation
system.mem_ctrls.bytesPerActivate::896-1023          925      0.43%     93.06% # Bytes accessed per row activation
system.mem_ctrls.bytesPerActivate::1024-1151        14777      6.94%    100.00% # Bytes accessed per row activation
system.mem_ctrls.bytesPerActivate::total       212843                       # Bytes accessed per row activation
system.mem_ctrls.rdPerTurnAround::samples        17569                       # Reads before turning the bus around for writes
system.mem_ctrls.rdPerTurnAround::mean      23.155273                       # Reads before turning the bus around for writes
system.mem_ctrls.rdPerTurnAround::gmean     20.627705                       # Reads before turning the bus around for writes
system.mem_ctrls.rdPerTurnAround::stdev     52.539506                       # Reads before turning the bus around for writes
system.mem_ctrls.rdPerTurnAround::0-127         17485     99.52%     99.52% # Reads before turning the bus around for writes
system.mem_ctrls.rdPerTurnAround::128-255           69      0.39%     99.91% # Reads before turning the bus around for writes
system.mem_ctrls.rdPerTurnAround::256-383            1      0.01%     99.92% # Reads before turning the bus around for writes
system.mem_ctrls.rdPerTurnAround::384-511            1      0.01%     99.93% # Reads before turning the bus around for writes
system.mem_ctrls.rdPerTurnAround::512-639            1      0.01%     99.93% # Reads before turning the bus around for writes
[...]
system.cpu.icache.ReadReq_avg_miss_latency::.cpu.inst 108745.882353                       # average ReadReq miss latency
system.cpu.icache.ReadReq_avg_miss_latency::total 108745.882353                       # average ReadReq miss latency
system.cpu.icache.ReadReq_mshr_misses::.cpu.inst          425                       # number of ReadReq MSHR misses
system.cpu.icache.ReadReq_mshr_misses::total          425                       # number of ReadReq MSHR misses
system.cpu.icache.ReadReq_mshr_miss_latency::.cpu.inst     45367000                       # number of ReadReq MSHR miss cycles
system.cpu.icache.ReadReq_mshr_miss_latency::total     45367000                       # number of ReadReq MSHR miss cycles
system.cpu.icache.ReadReq_mshr_miss_rate::.cpu.inst     0.000053                       # mshr miss rate for ReadReq accesses
system.cpu.icache.ReadReq_mshr_miss_rate::total     0.000053                       # mshr miss rate for ReadReq accesses
system.cpu.icache.ReadReq_avg_mshr_miss_latency::.cpu.inst 106745.882353                       # average ReadReq mshr miss latency
system.cpu.icache.ReadReq_avg_mshr_miss_latency::total 106745.882353                       # average ReadReq mshr miss latency
system.cpu.icache.tags.pwrStateResidencyTicks::UNDEFINED 163367337000                       # Cumulative time (in ticks) in various power states
system.cpu.icache.tags.tagsinuse           313.653241                       # Cycle average of tags in use
system.cpu.icache.tags.total_refs             8051180                       # Total number of references to valid blocks.
system.cpu.icache.tags.sampled_refs               425                       # Sample count of references to valid blocks.
system.cpu.icache.tags.avg_refs          18943.952941                       # Average number of references to valid blocks.
system.cpu.icache.tags.warmup_cycle            113000                       # Cycle when the warmup percentage was hit.
system.cpu.icache.tags.occ_blocks::.cpu.inst   313.653241                       # Average occupied blocks per requestor
system.cpu.icache.tags.occ_percent::.cpu.inst     0.612604                       # Average percentage of cache occupancy
system.cpu.icache.tags.occ_percent::total     0.612604                       # Average percentage of cache occupancy
system.cpu.icache.tags.occ_task_id_blocks::1024          372                       # Occupied blocks per task id
system.cpu.icache.tags.age_task_id_blocks_1024::4          372                       # Occupied blocks per task id
system.cpu.icache.tags.occ_task_id_percent::1024     0.726562                       # Percentage of cache occupancy per task id
system.cpu.icache.tags.tag_accesses          32205145                       # Number of tag accesses
system.cpu.icache.tags.data_accesses         32205145                       # Number of data accesses
system.cpu.dtb.walker.pwrStateResidencyTicks::UNDEFINED 163367337000                       # Cumulative time (in ticks) in various power states
system.cpu.dtb.stage2_mmu.stage2_tlb.walker.pwrStateResidencyTicks::UNDEFINED 163367337000                       # Cumulative time (in ticks) in various power states
system.cpu.dcache.pwrStateResidencyTicks::UNDEFINED 163367337000                       # Cumulative time (in ticks) in various power states
system.cpu.dcache.demand_hits::.cpu.data     51406705                       # number of demand (read+write) hits
system.cpu.dcache.demand_hits::total         51406705                       # number of demand (read+write) hits
system.cpu.dcache.overall_hits::.cpu.data     51407304                       # number of overall hits
system.cpu.dcache.overall_hits::total        51407304                       # number of overall hits
system.cpu.dcache.demand_misses::.cpu.data       656516                       # number of demand (read+write) misses
system.cpu.dcache.demand_misses::total         656516                       # number of demand (read+write) misses
system.cpu.dcache.overall_misses::.cpu.data       664336                       # number of overall misses
system.cpu.dcache.overall_misses::total        664336                       # number of overall misses
system.cpu.dcache.demand_miss_latency::.cpu.data  37755566000                       # number of demand (read+write) miss cycles
system.cpu.dcache.demand_miss_latency::total  37755566000                       # number of demand (read+write) miss cycles
system.cpu.dcache.overall_miss_latency::.cpu.data  37755566000                       # number of overall miss cycles
system.cpu.dcache.overall_miss_latency::total  37755566000                       # number of overall miss cycles
system.cpu.dcache.demand_accesses::.cpu.data     52063221                       # number of demand (read+write) accesses
system.cpu.dcache.demand_accesses::total     52063221                       # number of demand (read+write) accesses
system.cpu.dcache.overall_accesses::.cpu.data     52071640                       # number of overall (read+write) accesses
system.cpu.dcache.overall_accesses::total     52071640                       # number of overall (read+write) accesses
system.cpu.dcache.demand_miss_rate::.cpu.data     0.012610                       # miss rate for demand accesses
system.cpu.dcache.demand_miss_rate::total     0.012610                       # miss rate for demand accesses
system.cpu.dcache.overall_miss_rate::.cpu.data     0.012758                       # miss rate for overall accesses
system.cpu.dcache.overall_miss_rate::total     0.012758                       # miss rate for overall accesses
system.cpu.dcache.demand_avg_miss_latency::.cpu.data 57508.980741                       # average overall miss latency
system.cpu.dcache.demand_avg_miss_latency::total 57508.980741                       # average overall miss latency
system.cpu.dcache.overall_avg_miss_latency::.cpu.data 56832.033790                       # average overall miss latency
system.cpu.dcache.overall_avg_miss_latency::total 56832.033790                       # average overall miss latency
system.cpu.dcache.blocked_cycles::no_mshrs            0                       # number of cycles access was blocked
system.cpu.dcache.blocked_cycles::no_targets            0                       # number of cycles access was blocked
system.cpu.dcache.blocked::no_mshrs                 0                       # number of cycles access was blocked
system.cpu.dcache.blocked::no_targets               0                       # number of cycles access was blocked
system.cpu.dcache.avg_blocked_cycles::no_mshrs          nan                       # average number of cycles each access was blocked
system.cpu.dcache.avg_blocked_cycles::no_targets          nan                       # average number of cycles each access was blocked
system.cpu.dcache.writebacks::.writebacks       566270                       # number of writebacks
system.cpu.dcache.writebacks::total            566270                       # number of writebacks
system.cpu.dcache.demand_mshr_hits::.cpu.data        32113                       # number of demand (read+write) MSHR hits
system.cpu.dcache.demand_mshr_hits::total        32113                       # number of demand (read+write) MSHR hits
system.cpu.dcache.overall_mshr_hits::.cpu.data        32113                       # number of overall MSHR hits
system.cpu.dcache.overall_mshr_hits::total        32113                       # number of overall MSHR hits
system.cpu.dcache.demand_mshr_misses::.cpu.data       624403                       # number of demand (read+write) MSHR misses
system.cpu.dcache.demand_mshr_misses::total       624403                       # number of demand (read+write) MSHR misses
system.cpu.dcache.overall_mshr_misses::.cpu.data       628358                       # number of overall MSHR misses
system.cpu.dcache.overall_mshr_misses::total       628358                       # number of overall MSHR misses
system.cpu.dcache.demand_mshr_miss_latency::.cpu.data  33599637000                       # number of demand (read+write) MSHR miss cycles
system.cpu.dcache.demand_mshr_miss_latency::total  33599637000                       # number of demand (read+write) MSHR miss cycles
system.cpu.dcache.overall_mshr_miss_latency::.cpu.data  34008989000                       # number of overall MSHR miss cycles
system.cpu.dcache.overall_mshr_miss_latency::total  34008989000                       # number of overall MSHR miss cycles
system.cpu.dcache.demand_mshr_miss_rate::.cpu.data     0.011993                       # mshr miss rate for demand accesses
system.cpu.dcache.demand_mshr_miss_rate::total     0.011993                       # mshr miss rate for demand accesses
system.cpu.dcache.overall_mshr_miss_rate::.cpu.data     0.012067                       # mshr miss rate for overall accesses
system.cpu.dcache.overall_mshr_miss_rate::total     0.012067                       # mshr miss rate for overall accesses
system.cpu.dcache.demand_avg_mshr_miss_latency::.cpu.data 53810.819295                       # average overall mshr miss latency
system.cpu.dcache.demand_avg_mshr_miss_latency::total 53810.819295                       # average overall mshr miss latency
system.cpu.dcache.overall_avg_mshr_miss_latency::.cpu.data 54123.587191                       # average overall mshr miss latency
system.cpu.dcache.overall_avg_mshr_miss_latency::total 54123.587191                       # average overall mshr miss latency
system.cpu.dcache.replacements                 627845                       # number of replacements
system.cpu.dcache.ReadReq_hits::.cpu.data     40762231                       # number of ReadReq hits
system.cpu.dcache.ReadReq_hits::total        40762231                       # number of ReadReq hits
system.cpu.dcache.ReadReq_misses::.cpu.data       350898                       # number of ReadReq misses
system.cpu.dcache.ReadReq_misses::total        350898                       # number of ReadReq misses
system.cpu.dcache.ReadReq_miss_latency::.cpu.data  15483521000                       # number of ReadReq miss cycles
system.cpu.dcache.ReadReq_miss_latency::total  15483521000                       # number of ReadReq miss cycles
system.cpu.dcache.ReadReq_accesses::.cpu.data     41113129                       # number of ReadReq accesses(hits+misses)
system.cpu.dcache.ReadReq_accesses::total     41113129                       # number of ReadReq accesses(hits+misses)
system.cpu.dcache.ReadReq_miss_rate::.cpu.data     0.008535                       # miss rate for ReadReq accesses
system.cpu.dcache.ReadReq_miss_rate::total     0.008535                       # miss rate for ReadReq accesses
system.cpu.dcache.ReadReq_avg_miss_latency::.cpu.data 44125.418213                       # average ReadReq miss latency
system.cpu.dcache.ReadReq_avg_miss_latency::total 44125.418213                       # average ReadReq miss latency
system.cpu.dcache.ReadReq_mshr_hits::.cpu.data         2569                       # number of ReadReq MSHR hits
system.cpu.dcache.ReadReq_mshr_hits::total         2569                       # number of ReadReq MSHR hits
system.cpu.dcache.ReadReq_mshr_misses::.cpu.data       348329                       # number of ReadReq MSHR misses
system.cpu.dcache.ReadReq_mshr_misses::total       348329                       # number of ReadReq MSHR misses
system.cpu.dcache.ReadReq_mshr_miss_latency::.cpu.data  14669423000                       # number of ReadReq MSHR miss cycles
system.cpu.dcache.ReadReq_mshr_miss_latency::total  14669423000                       # number of ReadReq MSHR miss cycles
system.cpu.dcache.ReadReq_mshr_miss_rate::.cpu.data     0.008472                       # mshr miss rate for ReadReq accesses
system.cpu.dcache.ReadReq_mshr_miss_rate::total     0.008472                       # mshr miss rate for ReadReq accesses
system.cpu.dcache.ReadReq_avg_mshr_miss_latency::.cpu.data 42113.699979                       # average ReadReq mshr miss latency
system.cpu.dcache.ReadReq_avg_mshr_miss_latency::total 42113.699979                       # average ReadReq mshr miss latency
system.cpu.dcache.WriteReq_hits::.cpu.data     10644474                       # number of WriteReq hits
system.cpu.dcache.WriteReq_hits::total       10644474                       # number of WriteReq hits
system.cpu.dcache.WriteReq_misses::.cpu.data       305618                       # number of WriteReq misses
system.cpu.dcache.WriteReq_misses::total       305618                       # number of WriteReq misses
system.cpu.dcache.WriteReq_miss_latency::.cpu.data  22272045000                       # number of WriteReq miss cycles
system.cpu.dcache.WriteReq_miss_latency::total  22272045000                       # number of WriteReq miss cycles
system.cpu.dcache.WriteReq_accesses::.cpu.data     10950092                       # number of WriteReq accesses(hits+misses)
system.cpu.dcache.WriteReq_accesses::total     10950092                       # number of WriteReq accesses(hits+misses)
system.cpu.dcache.WriteReq_miss_rate::.cpu.data     0.027910                       # miss rate for WriteReq accesses
system.cpu.dcache.WriteReq_miss_rate::total     0.027910                       # miss rate for WriteReq accesses
system.cpu.dcache.WriteReq_avg_miss_latency::.cpu.data 72875.436002                       # average WriteReq miss latency
system.cpu.dcache.WriteReq_avg_miss_latency::total 72875.436002                       # average WriteReq miss latency
system.cpu.dcache.WriteReq_mshr_hits::.cpu.data        29544                       # number of WriteReq MSHR hits
system.cpu.dcache.WriteReq_mshr_hits::total        29544                       # number of WriteReq MSHR hits
system.cpu.dcache.WriteReq_mshr_misses::.cpu.data       276074                       # number of WriteReq MSHR misses
system.cpu.dcache.WriteReq_mshr_misses::total       276074                       # number of WriteReq MSHR misses
system.cpu.dcache.WriteReq_mshr_miss_latency::.cpu.data  18930214000                       # number of WriteReq MSHR miss cycles
system.cpu.dcache.WriteReq_mshr_miss_latency::total  18930214000                       # number of WriteReq MSHR miss cycles
system.cpu.dcache.WriteReq_mshr_miss_rate::.cpu.data     0.025212                       # mshr miss rate for WriteReq accesses
system.cpu.dcache.WriteReq_mshr_miss_rate::total     0.025212                       # mshr miss rate for WriteReq accesses
system.cpu.dcache.WriteReq_avg_mshr_miss_latency::.cpu.data 68569.347349                       # average WriteReq mshr miss latency
system.cpu.dcache.WriteReq_avg_mshr_miss_latency::total 68569.347349                       # average WriteReq mshr miss latency
system.cpu.dcache.SoftPFReq_hits::.cpu.data          599                       # number of SoftPFReq hits
system.cpu.dcache.SoftPFReq_hits::total           599                       # number of SoftPFReq hits
system.cpu.dcache.SoftPFReq_misses::.cpu.data         7820                       # number of SoftPFReq misses
system.cpu.dcache.SoftPFReq_misses::total         7820                       # number of SoftPFReq misses
system.cpu.dcache.SoftPFReq_accesses::.cpu.data         8419                       # number of SoftPFReq accesses(hits+misses)
system.cpu.dcache.SoftPFReq_accesses::total         8419                       # number of SoftPFReq accesses(hits+misses)
system.cpu.dcache.SoftPFReq_miss_rate::.cpu.data     0.928851                       # miss rate for SoftPFReq accesses
system.cpu.dcache.SoftPFReq_miss_rate::total     0.928851                       # miss rate for SoftPFReq accesses
system.cpu.dcache.SoftPFReq_mshr_misses::.cpu.data         3955                       # number of SoftPFReq MSHR misses
system.cpu.dcache.SoftPFReq_mshr_misses::total         3955                       # number of SoftPFReq MSHR misses
system.cpu.dcache.SoftPFReq_mshr_miss_latency::.cpu.data    409352000                       # number of SoftPFReq MSHR miss cycles
system.cpu.dcache.SoftPFReq_mshr_miss_latency::total    409352000                       # number of SoftPFReq MSHR miss cycles
system.cpu.dcache.SoftPFReq_mshr_miss_rate::.cpu.data     0.469771                       # mshr miss rate for SoftPFReq accesses
system.cpu.dcache.SoftPFReq_mshr_miss_rate::total     0.469771                       # mshr miss rate for SoftPFReq accesses
system.cpu.dcache.SoftPFReq_avg_mshr_miss_latency::.cpu.data 103502.402023                       # average SoftPFReq mshr miss latency
system.cpu.dcache.SoftPFReq_avg_mshr_miss_latency::total 103502.402023                       # average SoftPFReq mshr miss latency
system.cpu.dcache.LoadLockedReq_hits::.cpu.data           38                       # number of LoadLockedReq hits
system.cpu.dcache.LoadLockedReq_hits::total           38                       # number of LoadLockedReq hits
system.cpu.dcache.LoadLockedReq_accesses::.cpu.data           38                       # number of LoadLockedReq accesses(hits+misses)
system.cpu.dcache.LoadLockedReq_accesses::total           38                       # number of LoadLockedReq accesses(hits+misses)
system.cpu.dcache.StoreCondReq_hits::.cpu.data           38                       # number of StoreCondReq hits
system.cpu.dcache.StoreCondReq_hits::total           38                       # number of StoreCondReq hits
system.cpu.dcache.StoreCondReq_accesses::.cpu.data           38                       # number of StoreCondReq accesses(hits+misses)
system.cpu.dcache.StoreCondReq_accesses::total           38                       # number of StoreCondReq accesses(hits+misses)
system.cpu.dcache.tags.pwrStateResidencyTicks::UNDEFINED 163367337000                       # Cumulative time (in ticks) in various power states
system.cpu.dcache.tags.tagsinuse           506.898697                       # Cycle average of tags in use
system.cpu.dcache.tags.total_refs            52035737                       # Total number of references to valid blocks.
system.cpu.dcache.tags.sampled_refs            628357                       # Sample count of references to valid blocks.
system.cpu.dcache.tags.avg_refs             82.812377                       # Average number of references to valid blocks.
system.cpu.dcache.tags.warmup_cycle            233000                       # Cycle when the warmup percentage was hit.
system.cpu.dcache.tags.occ_blocks::.cpu.data   506.898697                       # Average occupied blocks per requestor
system.cpu.dcache.tags.occ_percent::.cpu.data     0.990037                       # Average percentage of cache occupancy
system.cpu.dcache.tags.occ_percent::total     0.990037                       # Average percentage of cache occupancy
system.cpu.dcache.tags.occ_task_id_blocks::1024          512                       # Occupied blocks per task id
system.cpu.dcache.tags.age_task_id_blocks_1024::0          114                       # Occupied blocks per task id
system.cpu.dcache.tags.age_task_id_blocks_1024::1          240                       # Occupied blocks per task id
system.cpu.dcache.tags.age_task_id_blocks_1024::2          157                       # Occupied blocks per task id
system.cpu.dcache.tags.age_task_id_blocks_1024::4            1                       # Occupied blocks per task id
system.cpu.dcache.tags.occ_task_id_percent::1024            1                       # Percentage of cache occupancy per task id
system.cpu.dcache.tags.tag_accesses         208915221                       # Number of tag accesses
system.cpu.dcache.tags.data_accesses        208915221                       # Number of data accesses
system.cpu.itb.walker.pwrStateResidencyTicks::UNDEFINED 163367337000                       # Cumulative time (in ticks) in various power states
system.cpu.itb.stage2_mmu.stage2_tlb.walker.pwrStateResidencyTicks::UNDEFINED 163367337000                       # Cumulative time (in ticks) in various power states

---------- End Simulation Statistics   ----------
