
---------- Begin Simulation Statistics ----------
final_tick                               111441004000                       # Number of ticks from beginning of simulation (restored from checkpoints and never reset)
host_inst_rate                                 171588                       # Simulator instruction rate (inst/s)
host_mem_usage                                 683968                       # Number of bytes of host memory used
host_op_rate                                   187771                       # Simulator op (including micro ops) rate (op/s)
host_seconds                                   582.79                       # Real time elapsed on the host
host_tick_rate                              191218780                       # Simulator tick rate (ticks/s)
sim_freq                                 1000000000000                       # Frequency of simulated ticks
sim_insts                                   100000001                       # Number of instructions simulated
sim_ops                                     109431937                       # Number of ops (including micro ops) simulated
sim_seconds                                  0.111441                       # Number of seconds simulated
sim_ticks                                111441004000                       # Number of ticks simulated
system.cpu.branchPred.BTBCorrect                    0                       # Number of correct BTB predictions (this stat may not work properly.
system.cpu.branchPred.BTBHitPct             87.716480                       # BTB Hit Percentage
system.cpu.branchPred.BTBHits                 8743570                       # Number of BTB hits
system.cpu.branchPred.BTBLookups              9967990                       # Number of BTB lookups
system.cpu.branchPred.RASInCorrect                348                       # Number of incorrect RAS predictions.
system.cpu.branchPred.condIncorrect            155052                       # Number of conditional branches incorrect
system.cpu.branchPred.condPredicted          16496577                       # Number of conditional branches predicted
system.cpu.branchPred.indirectHits             300027                       # Number of indirect target hits.
system.cpu.branchPred.indirectLookups          526295                       # Number of indirect predictor lookups.
system.cpu.branchPred.indirectMisses           226268                       # Number of indirect misses.
system.cpu.branchPred.lookups                20603674                       # Number of BP lookups
system.cpu.branchPred.usedRAS                 1050701                       # Number of times the RAS was used to get a target.
system.cpu.branchPredindirectMispredicted         1238                       # Number of mispredicted indirect branches.
system.cpu.committedInsts                   100000001                       # Number of instructions committed
system.cpu.committedOps                     109431937                       # Number of ops (including micro ops) committed
system.cpu.cpi                               1.114410                       # CPI: cycles per instruction
system.cpu.discardedOps                        720173                       # Number of ops (including micro ops) which were discarded before commit
system.cpu.dtb.accesses                             0                       # DTB accesses
system.cpu.dtb.align_faults                         0                       # Number of TLB faults due to alignment restrictions
system.cpu.dtb.domain_faults                        0                       # Number of TLB faults due to domain restrictions
system.cpu.dtb.flush_entries                        0                       # Number of entries that have been flushed from TLB
system.cpu.dtb.flush_tlb                            0                       # Number of times complete TLB was flushed
system.cpu.dtb.flush_tlb_asid                       0                       # Number of times TLB was flushed by ASID
system.cpu.dtb.flush_tlb_mva                        0                       # Number of times TLB was flushed by MVA
system.cpu.dtb.flush_tlb_mva_asid                   0                       # Number of times TLB was flushed by MVA & ASID
system.cpu.dtb.hits                                 0                       # DTB hits
system.cpu.dtb.inst_accesses                        0                       # ITB inst accesses
system.cpu.dtb.inst_hits                            0                       # ITB inst hits
system.cpu.dtb.inst_misses                          0                       # ITB inst misses
system.cpu.dtb.misses                               0                       # DTB misses
system.cpu.dtb.perms_faults                         0                       # Number of TLB faults due to permissions restrictions
system.cpu.dtb.prefetch_faults                      0                       # Number of TLB faults due to prefetch
system.cpu.dtb.read_accesses                        0                       # DTB read accesses
system.cpu.dtb.read_hits                            0                       # DTB read hits
system.cpu.dtb.read_misses                          0                       # DTB read misses
system.cpu.dtb.stage2_mmu.stage2_tlb.accesses            0                       # DTB accesses
system.cpu.dtb.stage2_mmu.stage2_tlb.align_faults            0                       # Number of TLB faults due to alignment restrictions
system.cpu.dtb.stage2_mmu.stage2_tlb.domain_faults            0                       # Number of TLB faults due to domain restrictions
system.cpu.dtb.stage2_mmu.stage2_tlb.flush_entries            0                       # Number of entries that have been flushed from TLB
system.cpu.dtb.stage2_mmu.stage2_tlb.flush_tlb            0                       # Number of times complete TLB was flushed
system.cpu.dtb.stage2_mmu.stage2_tlb.flush_tlb_asid            0                       # Number of times TLB was flushed by ASID
system.cpu.dtb.stage2_mmu.stage2_tlb.flush_tlb_mva            0                       # Number of times TLB was flushed by MVA
system.cpu.dtb.stage2_mmu.stage2_tlb.flush_tlb_mva_asid            0                       # Number of times TLB was flushed by MVA & ASID
system.cpu.dtb.stage2_mmu.stage2_tlb.hits            0                       # DTB hits
system.cpu.dtb.stage2_mmu.stage2_tlb.inst_accesses            0                       # ITB inst accesses
system.cpu.dtb.stage2_mmu.stage2_tlb.inst_hits            0                       # ITB inst hits
system.cpu.dtb.stage2_mmu.stage2_tlb.inst_misses            0                       # ITB inst misses
system.cpu.dtb.stage2_mmu.stage2_tlb.misses            0                       # DTB misses
system.cpu.dtb.stage2_mmu.stage2_tlb.perms_faults            0                       # Number of TLB faults due to permissions restrictions
system.cpu.dtb.stage2_mmu.stage2_tlb.prefetch_faults            0                       # Number of TLB faults due to prefetch
system.cpu.dtb.stage2_mmu.stage2_tlb.read_accesses            0                       # DTB read accesses
system.cpu.dtb.stage2_mmu.stage2_tlb.read_hits            0                       # DTB read hits
system.cpu.dtb.stage2_mmu.stage2_tlb.read_misses            0                       # DTB read misses
system.cpu.dtb.stage2_mmu.stage2_tlb.walker.walkRequestOrigin_Requested::Data            0                       # Table walker requests started/completed, data/inst
system.cpu.dtb.stage2_mmu.stage2_tlb.walker.walkRequestOrigin_Requested::Inst            0                       # Table walker requests started/completed, data/inst
system.cpu.dtb.stage2_mmu.stage2_tlb.walker.walkRequestOrigin_Requested::total            0                       # Table walker requests started/completed, data/inst
system.cpu.dtb.stage2_mmu.stage2_tlb.walker.walkRequestOrigin_Completed::Data            0                       # Table walker requests started/completed, data/inst
system.cpu.dtb.stage2_mmu.stage2_tlb.walker.walkRequestOrigin_Completed::Inst            0                       # Table walker requests started/completed, data/inst
system.cpu.dtb.stage2_mmu.stage2_tlb.walker.walkRequestOrigin_Completed::total            0                       # Table walker requests started/completed, data/inst
system.cpu.dtb.stage2_mmu.stage2_tlb.walker.walkRequestOrigin::total            0                       # Table walker requests started/completed, data/inst
system.cpu.dtb.stage2_mmu.stage2_tlb.walker.walks            0                       # Table walker walks requested
system.cpu.dtb.stage2_mmu.stage2_tlb.write_accesses            0                       # DTB write accesses
system.cpu.dtb.stage2_mmu.stage2_tlb.write_hits            0                       # DTB write hits
system.cpu.dtb.stage2_mmu.stage2_tlb.write_misses            0                       # DTB write misses
system.cpu.dtb.walker.walkRequestOrigin_Requested::Data            0                       # Table walker requests started/completed, data/inst
system.cpu.dtb.walker.walkRequestOrigin_Requested::Inst            0                       # Table walker requests started/completed, data/inst
system.cpu.dtb.walker.walkRequestOrigin_Requested::total            0                       # Table walker requests started/completed, data/inst
system.cpu.dtb.walker.walkRequestOrigin_Completed::Data            0                       # Table walker requests started/completed, data/inst
system.cpu.dtb.walker.walkRequestOrigin_Completed::Inst            0                       # Table walker requests started/completed, data/inst
system.cpu.dtb.walker.walkRequestOrigin_Completed::total            0                       # Table walker requests started/completed, data/inst
system.cpu.dtb.walker.walkRequestOrigin::total            0                       # Table walker requests started/completed, data/inst
system.cpu.dtb.walker.walks                         0                       # Table walker walks requested
system.cpu.dtb.write_accesses                       0                       # DTB write accesses
system.cpu.dtb.write_hits                           0                       # DTB write hits
system.cpu.dtb.write_misses                         0                       # DTB write misses
system.cpu.fetch2.amo_instructions                  0                       # Number of memory atomic instructions successfully decoded
system.cpu.fetch2.fp_instructions                   0                       # Number of floating point instructions successfully decoded
system.cpu.fetch2.int_instructions           49942422                       # Number of integer instructions successfully decoded
system.cpu.fetch2.load_instructions          17195652                       # Number of memory load instructions successfully decoded
system.cpu.fetch2.store_instructions         10035289                       # Number of memory store instructions successfully decoded
system.cpu.fetch2.vec_instructions                  0                       # Number of SIMD instructions successfully decoded
system.cpu.idleCycles                         2575170                       # Total number of cycles that the object has spent stopped
system.cpu.ipc                               0.897336                       # IPC: instructions per cycle
system.cpu.itb.accesses                             0                       # DTB accesses
system.cpu.itb.align_faults                         0                       # Number of TLB faults due to alignment restrictions
system.cpu.itb.domain_faults                        0                       # Number of TLB faults due to domain restrictions
system.cpu.itb.flush_entries                        0                       # Number of entries that have been flushed from TLB
system.cpu.itb.flush_tlb                            0                       # Number of times complete TLB was flushed
system.cpu.itb.flush_tlb_asid                       0                       # Number of times TLB was flushed by ASID
system.cpu.itb.flush_tlb_mva                        0                       # Number of times TLB was flushed by MVA
system.cpu.itb.flush_tlb_mva_asid                   0                       # Number of times TLB was flushed by MVA & ASID
system.cpu.itb.hits                                 0                       # DTB hits
system.cpu.itb.inst_accesses                        0                       # ITB inst accesses
system.cpu.itb.inst_hits                            0                       # ITB inst hits
system.cpu.itb.inst_misses                          0                       # ITB inst misses
system.cpu.itb.misses                               0                       # DTB misses
system.cpu.itb.perms_faults                         0                       # Number of TLB faults due to permissions restrictions
system.cpu.itb.prefetch_faults                      0                       # Number of TLB faults due to prefetch
system.cpu.itb.read_accesses                        0                       # DTB read accesses
system.cpu.itb.read_hits                            0                       # DTB read hits
system.cpu.itb.read_misses                          0                       # DTB read misses
system.cpu.itb.stage2_mmu.stage2_tlb.accesses            0                       # DTB accesses
system.cpu.itb.stage2_mmu.stage2_tlb.align_faults            0                       # Number of TLB faults due to alignment restrictions
system.cpu.itb.stage2_mmu.stage2_tlb.domain_faults            0                       # Number of TLB faults due to domain restrictions
system.cpu.itb.stage2_mmu.stage2_tlb.flush_entries            0                       # Number of entries that have been flushed from TLB
system.cpu.itb.stage2_mmu.stage2_tlb.flush_tlb            0                       # Number of times complete TLB was flushed
system.cpu.itb.stage2_mmu.stage2_tlb.flush_tlb_asid            0                       # Number of times TLB was flushed by ASID
system.cpu.itb.stage2_mmu.stage2_tlb.flush_tlb_mva            0                       # Number of times TLB was flushed by MVA
system.cpu.itb.stage2_mmu.stage2_tlb.flush_tlb_mva_asid            0                       # Number of times TLB was flushed by MVA & ASID
system.cpu.itb.stage2_mmu.stage2_tlb.hits            0                       # DTB hits
system.cpu.itb.stage2_mmu.stage2_tlb.inst_accesses            0                       # ITB inst accesses
system.cpu.itb.stage2_mmu.stage2_tlb.inst_hits            0                       # ITB inst hits
system.cpu.itb.stage2_mmu.stage2_tlb.inst_misses            0                       # ITB inst misses
system.cpu.itb.stage2_mmu.stage2_tlb.misses            0                       # DTB misses
system.cpu.itb.stage2_mmu.stage2_tlb.perms_faults            0                       # Number of TLB faults due to permissions restrictions
system.cpu.itb.stage2_mmu.stage2_tlb.prefetch_faults            0                       # Number of TLB faults due to prefetch
system.cpu.itb.stage2_mmu.stage2_tlb.read_accesses            0                       # DTB read accesses
system.cpu.itb.stage2_mmu.stage2_tlb.read_hits            0                       # DTB read hits
system.cpu.itb.stage2_mmu.stage2_tlb.read_misses            0                       # DTB read misses
system.cpu.itb.stage2_mmu.stage2_tlb.walker.walkRequestOrigin_Requested::Data            0                       # Table walker requests started/completed, data/inst
system.cpu.itb.stage2_mmu.stage2_tlb.walker.walkRequestOrigin_Requested::Inst            0                       # Table walker requests started/completed, data/inst
system.cpu.itb.stage2_mmu.stage2_tlb.walker.walkRequestOrigin_Requested::total            0                       # Table walker requests started/completed, data/inst
system.cpu.itb.stage2_mmu.stage2_tlb.walker.walkRequestOrigin_Completed::Data            0                       # Table walker requests started/completed, data/inst
system.cpu.itb.stage2_mmu.stage2_tlb.walker.walkRequestOrigin_Completed::Inst            0                       # Table walker requests started/completed, data/inst
system.cpu.itb.stage2_mmu.stage2_tlb.walker.walkRequestOrigin_Completed::total            0                       # Table walker requests started/completed, data/inst
system.cpu.itb.stage2_mmu.stage2_tlb.walker.walkRequestOrigin::total            0                       # Table walker requests started/completed, data/inst
system.cpu.itb.stage2_mmu.stage2_tlb.walker.walks            0                       # Table walker walks requested
system.cpu.itb.stage2_mmu.stage2_tlb.write_accesses            0                       # DTB write accesses
system.cpu.itb.stage2_mmu.stage2_tlb.write_hits            0                       # DTB write hits
system.cpu.itb.stage2_mmu.stage2_tlb.write_misses            0                       # DTB write misses
system.cpu.itb.walker.walkRequestOrigin_Requested::Data            0                       # Table walker requests started/completed, data/inst
system.cpu.itb.walker.walkRequestOrigin_Requested::Inst            0                       # Table walker requests started/completed, data/inst
system.cpu.itb.walker.walkRequestOrigin_Requested::total            0                       # Table walker requests started/completed, data/inst
system.cpu.itb.walker.walkRequestOrigin_Completed::Data            0                       # Table walker requests started/completed, data/inst
system.cpu.itb.walker.walkRequestOrigin_Completed::Inst            0                       # Table walker requests started/completed, data/inst
system.cpu.itb.walker.walkRequestOrigin_Completed::total            0                       # Table walker requests started/completed, data/inst
system.cpu.itb.walker.walkRequestOrigin::total            0                       # Table walker requests started/completed, data/inst
system.cpu.itb.walker.walks                         0                       # Table walker walks requested
system.cpu.itb.write_accesses                       0                       # DTB write accesses
system.cpu.itb.write_hits                           0                       # DTB write hits
system.cpu.itb.write_misses                         0                       # DTB write misses
system.cpu.numCycles                        111441004                       # number of cpu cycles simulated
system.cpu.numFetchSuspends                         0                       # Number of times Execute suspended instruction fetching
system.cpu.numWorkItemsCompleted                    0                       # number of work items this cpu completed
system.cpu.numWorkItemsStarted                      0                       # number of work items this cpu started
system.cpu.op_class_0::No_OpClass                   0      0.00%      0.00% # Class of committed instruction
system.cpu.op_class_0::IntAlu                72955303     66.67%     66.67% # Class of committed instruction
system.cpu.op_class_0::IntMult                 568365      0.52%     67.19% # Class of committed instruction
system.cpu.op_class_0::IntDiv                       0      0.00%     67.19% # Class of committed instruction
system.cpu.op_class_0::FloatAdd                     0      0.00%     67.19% # Class of committed instruction
system.cpu.op_class_0::FloatCmp                     0      0.00%     67.19% # Class of committed instruction
system.cpu.op_class_0::FloatCvt                     0      0.00%     67.19% # Class of committed instruction
system.cpu.op_class_0::FloatMult                    0      0.00%     67.19% # Class of committed instruction
system.cpu.op_class_0::FloatMultAcc                 0      0.00%     67.19% # Class of committed instruction
system.cpu.op_class_0::FloatDiv                     0      0.00%     67.19% # Class of committed instruction
system.cpu.op_class_0::FloatMisc                    0      0.00%     67.19% # Class of committed instruction
system.cpu.op_class_0::FloatSqrt                    0      0.00%     67.19% # Class of committed instruction
system.cpu.op_class_0::SimdAdd                 241252      0.22%     67.41% # Class of committed instruction
system.cpu.op_class_0::SimdAddAcc                   0      0.00%     67.41% # Class of committed instruction
system.cpu.op_class_0::SimdAlu                 154720      0.14%     67.55% # Class of committed instruction
system.cpu.op_class_0::SimdCmp                 120626      0.11%     67.66% # Class of committed instruction
system.cpu.op_class_0::SimdCvt                      0      0.00%     67.66% # Class of committed instruction
system.cpu.op_class_0::SimdMisc                 44544      0.04%     67.70% # Class of committed instruction
system.cpu.op_class_0::SimdMult                     0      0.00%     67.70% # Class of committed instruction
system.cpu.op_class_0::SimdMultAcc                  0      0.00%     67.70% # Class of committed instruction
system.cpu.op_class_0::SimdShift                    0      0.00%     67.70% # Class of committed instruction
system.cpu.op_class_0::SimdShiftAcc                 0      0.00%     67.70% # Class of committed instruction
system.cpu.op_class_0::SimdDiv                      0      0.00%     67.70% # Class of committed instruction
system.cpu.op_class_0::SimdSqrt                     0      0.00%     67.70% # Class of committed instruction
system.cpu.op_class_0::SimdFloatAdd                 0      0.00%     67.70% # Class of committed instruction
system.cpu.op_class_0::SimdFloatAlu                 0      0.00%     67.70% # Class of committed instruction
system.cpu.op_class_0::SimdFloatCmp                 0      0.00%     67.70% # Class of committed instruction
system.cpu.op_class_0::SimdFloatCvt                 0      0.00%     67.70% # Class of committed instruction
system.cpu.op_class_0::SimdFloatDiv                 0      0.00%     67.70% # Class of committed instruction
system.cpu.op_class_0::SimdFloatMisc           166465      0.15%     67.85% # Class of committed instruction
system.cpu.op_class_0::SimdFloatMult                0      0.00%     67.85% # Class of committed instruction
system.cpu.op_class_0::SimdFloatMultAcc             0      0.00%     67.85% # Class of committed instruction
system.cpu.op_class_0::SimdFloatSqrt                0      0.00%     67.85% # Class of committed instruction
system.cpu.op_class_0::SimdReduceAdd                0      0.00%     67.85% # Class of committed instruction
system.cpu.op_class_0::SimdReduceAlu                0      0.00%     67.85% # Class of committed instruction
system.cpu.op_class_0::SimdReduceCmp                0      0.00%     67.85% # Class of committed instruction
system.cpu.op_class_0::SimdFloatReduceAdd            0      0.00%     67.85% # Class of committed instruction
system.cpu.op_class_0::SimdFloatReduceCmp            0      0.00%     67.85% # Class of committed instruction
system.cpu.op_class_0::SimdAes                      0      0.00%     67.85% # Class of committed instruction
system.cpu.op_class_0::SimdAesMix                   0      0.00%     67.85% # Class of committed instruction
system.cpu.op_class_0::SimdSha1Hash                 0      0.00%     67.85% # Class of committed instruction
system.cpu.op_class_0::SimdSha1Hash2                0      0.00%     67.85% # Class of committed instruction
system.cpu.op_class_0::SimdSha256Hash               0      0.00%     67.85% # Class of committed instruction
system.cpu.op_class_0::SimdSha256Hash2              0      0.00%     67.85% # Class of committed instruction
system.cpu.op_class_0::SimdShaSigma2                0      0.00%     67.85% # Class of committed instruction
system.cpu.op_class_0::SimdShaSigma3                0      0.00%     67.85% # Class of committed instruction
system.cpu.op_class_0::SimdPredAlu                  0      0.00%     67.85% # Class of committed instruction
system.cpu.op_class_0::MemRead               20646465     18.87%     86.72% # Class of committed instruction
system.cpu.op_class_0::MemWrite              14534197     13.28%    100.00% # Class of committed instruction
system.cpu.op_class_0::FloatMemRead                 0      0.00%    100.00% # Class of committed instruction
system.cpu.op_class_0::FloatMemWrite                0      0.00%    100.00% # Class of committed instruction
system.cpu.op_class_0::IprAccess                    0      0.00%    100.00% # Class of committed instruction
system.cpu.op_class_0::InstPrefetch                 0      0.00%    100.00% # Class of committed instruction
system.cpu.op_class_0::total                109431937                       # Class of committed instruction
system.cpu.tickCycles                       108865834                       # Number of cycles that the object actually ticked
system.cpu.workload.numSyscalls                    86                       # Number of system calls
system.membus.snoop_filter.hit_multi_requests            0                       # Number of requests hitting in the snoop filter with multiple (>1) holders of the requested data.
system.membus.snoop_filter.hit_multi_snoops            0                       # Number of snoops hitting in the snoop filter with multiple (>1) holders of the requested data.
system.membus.snoop_filter.hit_single_requests        13933                       # Number of requests hitting in the snoop filter with a single holder of the requested data.
system.membus.snoop_filter.hit_single_snoops            0                       # Number of snoops hitting in the snoop filter with a single holder of the requested data.
system.membus.snoop_filter.tot_requests         36414                       # Total number of requests made to the snoop filter.
system.membus.snoop_filter.tot_snoops               0                       # Total number of snoops made to the snoop filter.
system.tol2bus.snoop_filter.hit_multi_requests           22                       # Number of requests hitting in the snoop filter with multiple (>1) holders of the requested data.
system.tol2bus.snoop_filter.hit_multi_snoops            5                       # Number of snoops hitting in the snoop filter with multiple (>1) holders of the requested data.
system.tol2bus.snoop_filter.hit_single_requests        32826                       # Number of requests hitting in the snoop filter with a single holder of the requested data.
system.tol2bus.snoop_filter.hit_single_snoops          356                       # Number of snoops hitting in the snoop filter with a single holder of the requested data.
system.tol2bus.snoop_filter.tot_requests        66486                       # Total number of requests made to the snoop filter.
system.tol2bus.snoop_filter.tot_snoops            361                       # Total number of snoops made to the snoop filter.
system.membus.pwrStateResidencyTicks::UNDEFINED 111441004000                       # Cumulative time (in ticks) in various power states
system.membus.trans_dist::ReadResp               3070                       # Transaction distribution
system.membus.trans_dist::WritebackDirty        13879                       # Transaction distribution
system.membus.trans_dist::CleanEvict               53                       # Transaction distribution
system.membus.trans_dist::ReadExReq             19412                       # Transaction distribution
system.membus.trans_dist::ReadExResp            19412                       # Transaction distribution
system.membus.trans_dist::ReadSharedReq          3070                       # Transaction distribution
system.membus.pkt_count_system.l2.mem_side::system.mem_ctrls.port        58896                       # Packet count per connected master and slave (bytes)
system.membus.pkt_count::total                  58896                       # Packet count per connected master and slave (bytes)
system.membus.pkt_size_system.l2.mem_side::system.mem_ctrls.port      4654208                       # Cumulative packet size per connected master and slave (bytes)
system.membus.pkt_size::total                 4654208                       # Cumulative packet size per connected master and slave (bytes)
system.membus.snoops                                0                       # Total snoops (count)
system.membus.snoopTraffic                          0                       # Total snoop traffic (bytes)
system.membus.snoop_fanout::samples             22482                       # Request fanout histogram
system.membus.snoop_fanout::mean                    0                       # Request fanout histogram
system.membus.snoop_fanout::stdev                   0                       # Request fanout histogram
system.membus.snoop_fanout::underflows              0      0.00%      0.00% # Request fanout histogram
system.membus.snoop_fanout::0                   22482    100.00%    100.00% # Request fanout histogram
system.membus.snoop_fanout::1                       0      0.00%    100.00% # Request fanout histogram
system.membus.snoop_fanout::overflows               0      0.00%    100.00% # Request fanout histogram
system.membus.snoop_fanout::min_value               0                       # Request fanout histogram
system.membus.snoop_fanout::max_value               0                       # Request fanout histogram
system.membus.snoop_fanout::total               22482                       # Request fanout histogram
system.membus.respLayer1.occupancy          212515250                       # Layer occupancy (ticks)
system.membus.respLayer1.utilization              0.2                       # Layer utilization (%)
system.membus.reqLayer0.occupancy           147446000                       # Layer occupancy (ticks)
system.membus.reqLayer0.utilization               0.1                       # Layer utilization (%)
system.tol2bus.pwrStateResidencyTicks::UNDEFINED 111441004000                       # Cumulative time (in ticks) in various power states
system.tol2bus.trans_dist::ReadResp             14253                       # Transaction distribution
system.tol2bus.trans_dist::WritebackDirty        44565                       # Transaction distribution
system.tol2bus.trans_dist::WritebackClean           17                       # Transaction distribution
system.tol2bus.trans_dist::CleanEvict            2531                       # Transaction distribution
system.tol2bus.trans_dist::ReadExReq            19412                       # Transaction distribution
system.tol2bus.trans_dist::ReadExResp           19412                       # Transaction distribution
system.tol2bus.trans_dist::ReadCleanReq           349                       # Transaction distribution
system.tol2bus.trans_dist::ReadSharedReq        13904                       # Transaction distribution
system.tol2bus.pkt_count_system.cpu.icache.mem_side::system.l2.cpu_side          715                       # Packet count per connected master and slave (bytes)
system.tol2bus.pkt_count_system.cpu.dcache.mem_side::system.l2.cpu_side        99436                       # Packet count per connected master and slave (bytes)
system.tol2bus.pkt_count::total                100151                       # Packet count per connected master and slave (bytes)
system.tol2bus.pkt_size_system.cpu.icache.mem_side::system.l2.cpu_side        46848                       # Cumulative packet size per connected master and slave (bytes)
system.tol2bus.pkt_size_system.cpu.dcache.mem_side::system.l2.cpu_side      8192256                       # Cumulative packet size per connected master and slave (bytes)
system.tol2bus.pkt_size::total                8239104                       # Cumulative packet size per connected master and slave (bytes)
system.tol2bus.snoops                           14292                       # Total snoops (count)
system.tol2bus.snoopTraffic                   1776512                       # Total snoop traffic (bytes)
system.tol2bus.snoop_fanout::samples            47957                       # Request fanout histogram
system.tol2bus.snoop_fanout::mean            0.008195                       # Request fanout histogram
system.tol2bus.snoop_fanout::stdev           0.091304                       # Request fanout histogram
system.tol2bus.snoop_fanout::underflows             0      0.00%      0.00% # Request fanout histogram
system.tol2bus.snoop_fanout::0                  47569     99.19%     99.19% # Request fanout histogram
system.tol2bus.snoop_fanout::1                    383      0.80%     99.99% # Request fanout histogram
system.tol2bus.snoop_fanout::2                      5      0.01%    100.00% # Request fanout histogram
system.tol2bus.snoop_fanout::overflows              0      0.00%    100.00% # Request fanout histogram
system.tol2bus.snoop_fanout::min_value              0                       # Request fanout histogram
system.tol2bus.snoop_fanout::max_value              2                       # Request fanout histogram
system.tol2bus.snoop_fanout::total              47957                       # Request fanout histogram
system.tol2bus.reqLayer0.occupancy          189298000                       # Layer occupancy (ticks)
system.tol2bus.reqLayer0.utilization              0.2                       # Layer utilization (%)
system.tol2bus.respLayer1.occupancy         166583996                       # Layer occupancy (ticks)
system.tol2bus.respLayer1.utilization             0.1                       # Layer utilization (%)
system.tol2bus.respLayer0.occupancy           1745000                       # Layer occupancy (ticks)
system.tol2bus.respLayer0.utilization             0.0                       # Layer utilization (%)
system.voltage_domain.voltage                       1                       # Voltage in Volts
system.clk_domain.clock                          1000                       # Clock period in ticks
system.l2.pwrStateResidencyTicks::UNDEFINED 111441004000                       # Cumulative time (in ticks) in various power states
system.l2.demand_hits::.cpu.inst                   12                       # number of demand (read+write) hits
system.l2.demand_hits::.cpu.data                11167                       # number of demand (read+write) hits
system.l2.demand_hits::total                    11179                       # number of demand (read+write) hits
system.l2.overall_hits::.cpu.inst                  12                       # number of overall hits
system.l2.overall_hits::.cpu.data               11167                       # number of overall hits
system.l2.overall_hits::total                   11179                       # number of overall hits
system.l2.demand_misses::.cpu.inst                337                       # number of demand (read+write) misses
system.l2.demand_misses::.cpu.data              22149                       # number of demand (read+write) misses
system.l2.demand_misses::total                  22486                       # number of demand (read+write) misses
system.l2.overall_misses::.cpu.inst               337                       # number of overall misses
system.l2.overall_misses::.cpu.data             22149                       # number of overall misses
system.l2.overall_misses::total                 22486                       # number of overall misses
system.l2.demand_miss_latency::.cpu.inst     35201000                       # number of demand (read+write) miss cycles
system.l2.demand_miss_latency::.cpu.data   2524414000                       # number of demand (read+write) miss cycles
system.l2.demand_miss_latency::total       2559615000                       # number of demand (read+write) miss cycles
system.l2.overall_miss_latency::.cpu.inst     35201000                       # number of overall miss cycles
system.l2.overall_miss_latency::.cpu.data   2524414000                       # number of overall miss cycles
system.l2.overall_miss_latency::total      2559615000                       # number of overall miss cycles
system.l2.demand_accesses::.cpu.inst              349                       # number of demand (read+write) accesses
system.l2.demand_accesses::.cpu.data            33316                       # number of demand (read+write) accesses
system.l2.demand_accesses::total                33665                       # number of demand (read+write) accesses
system.l2.overall_accesses::.cpu.inst             349                       # number of overall (read+write) accesses
system.l2.overall_accesses::.cpu.data           33316                       # number of overall (read+write) accesses
system.l2.overall_accesses::total               33665                       # number of overall (read+write) accesses
system.l2.demand_miss_rate::.cpu.inst        0.965616                       # miss rate for demand accesses
system.l2.demand_miss_rate::.cpu.data        0.664816                       # miss rate for demand accesses
system.l2.demand_miss_rate::total            0.667934                       # miss rate for demand accesses
system.l2.overall_miss_rate::.cpu.inst       0.965616                       # miss rate for overall accesses
system.l2.overall_miss_rate::.cpu.data       0.664816                       # miss rate for overall accesses
system.l2.overall_miss_rate::total           0.667934                       # miss rate for overall accesses
system.l2.demand_avg_miss_latency::.cpu.inst 104454.005935                       # average overall miss latency
system.l2.demand_avg_miss_latency::.cpu.data 113974.174906                       # average overall miss latency
system.l2.demand_avg_miss_latency::total 113831.495153                       # average overall miss latency
system.l2.overall_avg_miss_latency::.cpu.inst 104454.005935                       # average overall miss latency
system.l2.overall_avg_miss_latency::.cpu.data 113974.174906                       # average overall miss latency
system.l2.overall_avg_miss_latency::total 113831.495153                       # average overall miss latency
system.l2.blocked_cycles::no_mshrs                  0                       # number of cycles access was blocked
system.l2.blocked_cycles::no_targets                0                       # number of cycles access was blocked
system.l2.blocked::no_mshrs                         0                       # number of cycles access was blocked
system.l2.blocked::no_targets                       0                       # number of cycles access was blocked
system.l2.avg_blocked_cycles::no_mshrs            nan                       # average number of cycles each access was blocked
system.l2.avg_blocked_cycles::no_targets          nan                       # average number of cycles each access was blocked
system.l2.writebacks::.writebacks               13879                       # number of writebacks
system.l2.writebacks::total                     13879                       # number of writebacks
system.l2.demand_mshr_hits::.cpu.data               4                       # number of demand (read+write) MSHR hits
system.l2.demand_mshr_hits::total                   4                       # number of demand (read+write) MSHR hits
system.l2.overall_mshr_hits::.cpu.data              4                       # number of overall MSHR hits
system.l2.overall_mshr_hits::total                  4                       # number of overall MSHR hits
system.l2.demand_mshr_misses::.cpu.inst           337                       # number of demand (read+write) MSHR misses
system.l2.demand_mshr_misses::.cpu.data         22145                       # number of demand (read+write) MSHR misses
system.l2.demand_mshr_misses::total             22482                       # number of demand (read+write) MSHR misses
system.l2.overall_mshr_misses::.cpu.inst          337                       # number of overall MSHR misses
system.l2.overall_mshr_misses::.cpu.data        22145                       # number of overall MSHR misses
system.l2.overall_mshr_misses::total            22482                       # number of overall MSHR misses
system.l2.demand_mshr_miss_latency::.cpu.inst     28461000                       # number of demand (read+write) MSHR miss cycles
system.l2.demand_mshr_miss_latency::.cpu.data   2081166000                       # number of demand (read+write) MSHR miss cycles
system.l2.demand_mshr_miss_latency::total   2109627000                       # number of demand (read+write) MSHR miss cycles
system.l2.overall_mshr_miss_latency::.cpu.inst     28461000                       # number of overall MSHR miss cycles
system.l2.overall_mshr_miss_latency::.cpu.data   2081166000                       # number of overall MSHR miss cycles
system.l2.overall_mshr_miss_latency::total   2109627000                       # number of overall MSHR miss cycles
system.l2.demand_mshr_miss_rate::.cpu.inst     0.965616                       # mshr miss rate for demand accesses
system.l2.demand_mshr_miss_rate::.cpu.data     0.664696                       # mshr miss rate for demand accesses
system.l2.demand_mshr_miss_rate::total       0.667815                       # mshr miss rate for demand accesses
system.l2.overall_mshr_miss_rate::.cpu.inst     0.965616                       # mshr miss rate for overall accesses
system.l2.overall_mshr_miss_rate::.cpu.data     0.664696                       # mshr miss rate for overall accesses
system.l2.overall_mshr_miss_rate::total      0.667815                       # mshr miss rate for overall accesses
system.l2.demand_avg_mshr_miss_latency::.cpu.inst 84454.005935                       # average overall mshr miss latency
system.l2.demand_avg_mshr_miss_latency::.cpu.data 93979.047189                       # average overall mshr miss latency
system.l2.demand_avg_mshr_miss_latency::total 93836.269015                       # average overall mshr miss latency
system.l2.overall_avg_mshr_miss_latency::.cpu.inst 84454.005935                       # average overall mshr miss latency
system.l2.overall_avg_mshr_miss_latency::.cpu.data 93979.047189                       # average overall mshr miss latency
system.l2.overall_avg_mshr_miss_latency::total 93836.269015                       # average overall mshr miss latency
system.l2.replacements                          14292                       # number of replacements
system.l2.WritebackDirty_hits::.writebacks        30686                       # number of WritebackDirty hits
system.l2.WritebackDirty_hits::total            30686                       # number of WritebackDirty hits
system.l2.WritebackDirty_accesses::.writebacks        30686                       # number of WritebackDirty accesses(hits+misses)
system.l2.WritebackDirty_accesses::total        30686                       # number of WritebackDirty accesses(hits+misses)
system.l2.WritebackClean_hits::.writebacks           16                       # number of WritebackClean hits
system.l2.WritebackClean_hits::total               16                       # number of WritebackClean hits
system.l2.WritebackClean_accesses::.writebacks           16                       # number of WritebackClean accesses(hits+misses)
system.l2.WritebackClean_accesses::total           16                       # number of WritebackClean accesses(hits+misses)
system.l2.CleanEvict_mshr_misses::.writebacks            1                       # number of CleanEvict MSHR misses
system.l2.CleanEvict_mshr_misses::total             1                       # number of CleanEvict MSHR misses
system.l2.CleanEvict_mshr_miss_rate::.writebacks          inf                       # mshr miss rate for CleanEvict accesses
system.l2.CleanEvict_mshr_miss_rate::total          inf                       # mshr miss rate for CleanEvict accesses
system.l2.ReadExReq_misses::.cpu.data           19412                       # number of ReadExReq misses
system.l2.ReadExReq_misses::total               19412                       # number of ReadExReq misses
system.l2.ReadExReq_miss_latency::.cpu.data   2209512000                       # number of ReadExReq miss cycles
system.l2.ReadExReq_miss_latency::total    2209512000                       # number of ReadExReq miss cycles
system.l2.ReadExReq_accesses::.cpu.data         19412                       # number of ReadExReq accesses(hits+misses)
system.l2.ReadExReq_accesses::total             19412                       # number of ReadExReq accesses(hits+misses)
system.l2.ReadExReq_miss_rate::.cpu.data            1                       # miss rate for ReadExReq accesses
system.l2.ReadExReq_miss_rate::total                1                       # miss rate for ReadExReq accesses
system.l2.ReadExReq_avg_miss_latency::.cpu.data 113821.965794                       # average ReadExReq miss latency
system.l2.ReadExReq_avg_miss_latency::total 113821.965794                       # average ReadExReq miss latency
system.l2.ReadExReq_mshr_misses::.cpu.data        19412                       # number of ReadExReq MSHR misses
system.l2.ReadExReq_mshr_misses::total          19412                       # number of ReadExReq MSHR misses
system.l2.ReadExReq_mshr_miss_latency::.cpu.data   1821272000                       # number of ReadExReq MSHR miss cycles
system.l2.ReadExReq_mshr_miss_latency::total   1821272000                       # number of ReadExReq MSHR miss cycles
system.l2.ReadExReq_mshr_miss_rate::.cpu.data            1                       # mshr miss rate for ReadExReq accesses
system.l2.ReadExReq_mshr_miss_rate::total            1                       # mshr miss rate for ReadExReq accesses
system.l2.ReadExReq_avg_mshr_miss_latency::.cpu.data 93821.965794                       # average ReadExReq mshr miss latency
system.l2.ReadExReq_avg_mshr_miss_latency::total 93821.965794                       # average ReadExReq mshr miss latency
system.l2.ReadCleanReq_hits::.cpu.inst             12                       # number of ReadCleanReq hits
system.l2.ReadCleanReq_hits::total                 12                       # number of ReadCleanReq hits
system.l2.ReadCleanReq_misses::.cpu.inst          337                       # number of ReadCleanReq misses
system.l2.ReadCleanReq_misses::total              337                       # number of ReadCleanReq misses
system.l2.ReadCleanReq_miss_latency::.cpu.inst     35201000                       # number of ReadCleanReq miss cycles
system.l2.ReadCleanReq_miss_latency::total     35201000                       # number of ReadCleanReq miss cycles
system.l2.ReadCleanReq_accesses::.cpu.inst          349                       # number of ReadCleanReq accesses(hits+misses)
system.l2.ReadCleanReq_accesses::total            349                       # number of ReadCleanReq accesses(hits+misses)
system.l2.ReadCleanReq_miss_rate::.cpu.inst     0.965616                       # miss rate for ReadCleanReq accesses
system.l2.ReadCleanReq_miss_rate::total      0.965616                       # miss rate for ReadCleanReq accesses
system.l2.ReadCleanReq_avg_miss_latency::.cpu.inst 104454.005935                       # average ReadCleanReq miss latency
system.l2.ReadCleanReq_avg_miss_latency::total 104454.005935                       # average ReadCleanReq miss latency
system.l2.ReadCleanReq_mshr_misses::.cpu.inst          337                       # number of ReadCleanReq MSHR misses
system.l2.ReadCleanReq_mshr_misses::total          337                       # number of ReadCleanReq MSHR misses
system.l2.ReadCleanReq_mshr_miss_latency::.cpu.inst     28461000                       # number of ReadCleanReq MSHR miss cycles
system.l2.ReadCleanReq_mshr_miss_latency::total     28461000                       # number of ReadCleanReq MSHR miss cycles
system.l2.ReadCleanReq_mshr_miss_rate::.cpu.inst     0.965616                       # mshr miss rate for ReadCleanReq accesses
system.l2.ReadCleanReq_mshr_miss_rate::total     0.965616                       # mshr miss rate for ReadCleanReq accesses
system.l2.ReadCleanReq_avg_mshr_miss_latency::.cpu.inst 84454.005935                       # average ReadCleanReq mshr miss latency
system.l2.ReadCleanReq_avg_mshr_miss_latency::total 84454.005935                       # average ReadCleanReq mshr miss latency
system.l2.ReadSharedReq_hits::.cpu.data         11167                       # number of ReadSharedReq hits
system.l2.ReadSharedReq_hits::total             11167                       # number of ReadSharedReq hits
system.l2.ReadSharedReq_misses::.cpu.data         2737                       # number of ReadSharedReq misses
system.l2.ReadSharedReq_misses::total            2737                       # number of ReadSharedReq misses
system.l2.ReadSharedReq_miss_latency::.cpu.data    314902000                       # number of ReadSharedReq miss cycles
system.l2.ReadSharedReq_miss_latency::total    314902000                       # number of ReadSharedReq miss cycles
system.l2.ReadSharedReq_accesses::.cpu.data        13904                       # number of ReadSharedReq accesses(hits+misses)
system.l2.ReadSharedReq_accesses::total         13904                       # number of ReadSharedReq accesses(hits+misses)
system.l2.ReadSharedReq_miss_rate::.cpu.data     0.196850                       # miss rate for ReadSharedReq accesses
system.l2.ReadSharedReq_miss_rate::total     0.196850                       # miss rate for ReadSharedReq accesses
system.l2.ReadSharedReq_avg_miss_latency::.cpu.data 115053.708440                       # average ReadSharedReq miss latency
system.l2.ReadSharedReq_avg_miss_latency::total 115053.708440                       # average ReadSharedReq miss latency
system.l2.ReadSharedReq_mshr_hits::.cpu.data            4                       # number of ReadSharedReq MSHR hits
system.l2.ReadSharedReq_mshr_hits::total            4                       # number of ReadSharedReq MSHR hits
system.l2.ReadSharedReq_mshr_misses::.cpu.data         2733                       # number of ReadSharedReq MSHR misses
system.l2.ReadSharedReq_mshr_misses::total         2733                       # number of ReadSharedReq MSHR misses
system.l2.ReadSharedReq_mshr_miss_latency::.cpu.data    259894000                       # number of ReadSharedReq MSHR miss cycles
system.l2.ReadSharedReq_mshr_miss_latency::total    259894000                       # number of ReadSharedReq MSHR miss cycles
system.l2.ReadSharedReq_mshr_miss_rate::.cpu.data     0.196562                       # mshr miss rate for ReadSharedReq accesses
system.l2.ReadSharedReq_mshr_miss_rate::total     0.196562                       # mshr miss rate for ReadSharedReq accesses
system.l2.ReadSharedReq_avg_mshr_miss_latency::.cpu.data 95094.767655                       # average ReadSharedReq mshr miss latency
system.l2.ReadSharedReq_avg_mshr_miss_latency::total 95094.767655                       # average ReadSharedReq mshr miss latency
system.l2.tags.pwrStateResidencyTicks::UNDEFINED 111441004000                       # Cumulative time (in ticks) in various power states
system.l2.tags.tagsinuse                  7821.979219                       # Cycle average of tags in use
system.l2.tags.total_refs                       66459                       # Total number of references to valid blocks.
system.l2.tags.sampled_refs                     22484                       # Sample count of references to valid blocks.
system.l2.tags.avg_refs                      2.955835                       # Average number of references to valid blocks.
system.l2.tags.warmup_cycle                     92000                       # Cycle when the warmup percentage was hit.
system.l2.tags.occ_blocks::.writebacks       0.916481                       # Average occupied blocks per requestor
system.l2.tags.occ_blocks::.cpu.inst        31.987234                       # Average occupied blocks per requestor
system.l2.tags.occ_blocks::.cpu.data      7789.075505                       # Average occupied blocks per requestor
system.l2.tags.occ_percent::.writebacks      0.000112                       # Average percentage of cache occupancy
system.l2.tags.occ_percent::.cpu.inst        0.003905                       # Average percentage of cache occupancy
system.l2.tags.occ_percent::.cpu.data        0.950815                       # Average percentage of cache occupancy
system.l2.tags.occ_percent::total            0.954831                       # Average percentage of cache occupancy
system.l2.tags.occ_task_id_blocks::1024          8192                       # Occupied blocks per task id
system.l2.tags.age_task_id_blocks_1024::0            1                       # Occupied blocks per task id
system.l2.tags.age_task_id_blocks_1024::1            8                       # Occupied blocks per task id
system.l2.tags.age_task_id_blocks_1024::2          121                       # Occupied blocks per task id
system.l2.tags.age_task_id_blocks_1024::3         1345                       # Occupied blocks per task id
system.l2.tags.age_task_id_blocks_1024::4         6717                       # Occupied blocks per task id
system.l2.tags.occ_task_id_percent::1024            1                       # Percentage of cache occupancy per task id
system.l2.tags.tag_accesses                    554196                       # Number of tag accesses
system.l2.tags.data_accesses                   554196                       # Number of data accesses
system.cpu_voltage_domain.voltage                   1                       # Voltage in Volts
system.mem_ctrls.pwrStateResidencyTicks::UNDEFINED 111441004000                       # Cumulative time (in ticks) in various power states
system.mem_ctrls.bytes_read::.cpu.inst          43136                       # Number of bytes read from this memory
system.mem_ctrls.bytes_read::.cpu.data        2834560                       # Number of bytes read from this memory
system.mem_ctrls.bytes_read::total            2877696                       # Number of bytes read from this memory
system.mem_ctrls.bytes_inst_read::.cpu.inst        43136                       # Number of instructions bytes read from this memory
system.mem_ctrls.bytes_inst_read::total         43136                       # Number of instructions bytes read from this memory
system.mem_ctrls.bytes_written::.writebacks      1776512                       # Number of bytes written to this memory
system.mem_ctrls.bytes_written::total         1776512                       # Number of bytes written to this memory
system.mem_ctrls.num_reads::.cpu.inst             337                       # Number of read requests responded to by this memory
system.mem_ctrls.num_reads::.cpu.data           22145                       # Number of read requests responded to by this memory
system.mem_ctrls.num_reads::total               22482                       # Number of read requests responded to by this memory
system.mem_ctrls.num_writes::.writebacks        13879                       # Number of write requests responded to by this memory
system.mem_ctrls.num_writes::total              13879                       # Number of write requests responded to by this memory
system.mem_ctrls.bw_read::.cpu.inst            387075                       # Total read bandwidth from this memory (bytes/s)
system.mem_ctrls.bw_read::.cpu.data          25435521                       # Total read bandwidth from this memory (bytes/s)
system.mem_ctrls.bw_read::total              25822596                       # Total read bandwidth from this memory (bytes/s)
system.mem_ctrls.bw_inst_read::.cpu.inst       387075                       # Instruction read bandwidth from this memory (bytes/s)
system.mem_ctrls.bw_inst_read::total           387075                       # Instruction read bandwidth from this memory (bytes/s)
system.mem_ctrls.bw_write::.writebacks       15941278                       # Write bandwidth from this memory (bytes/s)
system.mem_ctrls.bw_write::total             15941278                       # Write bandwidth from this memory (bytes/s)
system.mem_ctrls.bw_total::.writebacks       15941278                       # Total bandwidth to/from this memory (bytes/s)
system.mem_ctrls.bw_total::.cpu.inst           387075                       # Total bandwidth to/from this memory (bytes/s)
system.mem_ctrls.bw_total::.cpu.data         25435521                       # Total bandwidth to/from this memory (bytes/s)
system.mem_ctrls.bw_total::total             41763874                       # Total bandwidth to/from this memory (bytes/s)
system.mem_ctrls.avgPriority_.writebacks::samples     27758.00                       # Average QoS priority value for accepted requests
system.mem_ctrls.avgPriority_.cpu.inst::samples       674.00                       # Average QoS priority value for accepted requests
system.mem_ctrls.avgPriority_.cpu.data::samples     44282.00                       # Average QoS priority value for accepted requests
system.mem_ctrls.priorityMinLatency      0.000000018750                       # per QoS priority minimum request to response latency (s)
system.mem_ctrls.priorityMaxLatency      0.002967392500                       # per QoS priority maximum request to response latency (s)
system.mem_ctrls.numReadWriteTurnArounds         1538                       # Number of turnarounds from READ to WRITE
system.mem_ctrls.numWriteReadTurnArounds         1538                       # Number of turnarounds from WRITE to READ
system.mem_ctrls.numStayReadState              109758                       # Number of times bus staying in READ state
system.mem_ctrls.numStayWriteState              26233                       # Number of times bus staying in WRITE state
system.mem_ctrls.readReqs                       22482                       # Number of read requests accepted
system.mem_ctrls.writeReqs                      13879                       # Number of write requests accepted
system.mem_ctrls.readBursts                     44964                       # Number of DRAM read bursts, including those serviced by the write queue
system.mem_ctrls.writeBursts                    27758                       # Number of DRAM write bursts, including those merged in the write queue
system.mem_ctrls.servicedByWrQ                      8                       # Number of DRAM read bursts serviced by the write queue
system.mem_ctrls.mergedWrBursts                     0                       # Number of DRAM write bursts merged with an existing one
system.mem_ctrls.neitherReadNorWriteReqs            0                       # Number of requests that are neither read nor write
system.mem_ctrls.perBankRdBursts::0              2778                       # Per bank write bursts
system.mem_ctrls.perBankRdBursts::1              2648                       # Per bank write bursts
system.mem_ctrls.perBankRdBursts::2              2660                       # Per bank write bursts
system.mem_ctrls.perBankRdBursts::3              2974                       # Per bank write bursts
system.mem_ctrls.perBankRdBursts::4              3088                       # Per bank write bursts
system.mem_ctrls.perBankRdBursts::5              2756                       # Per bank write bursts
system.mem_ctrls.perBankRdBursts::6              2766                       # Per bank write bursts
system.mem_ctrls.perBankRdBursts::7              2784                       # Per bank write bursts
system.mem_ctrls.perBankRdBursts::8              2766                       # Per bank write bursts
system.mem_ctrls.perBankRdBursts::9              2826                       # Per bank write bursts
system.mem_ctrls.perBankRdBursts::10             2784                       # Per bank write bursts
system.mem_ctrls.perBankRdBursts::11             2834                       # Per bank write bursts
system.mem_ctrls.perBankRdBursts::12             2854                       # Per bank write bursts
system.mem_ctrls.perBankRdBursts::13             2770                       # Per bank write bursts
system.mem_ctrls.perBankRdBursts::14             2870                       # Per bank write bursts
system.mem_ctrls.perBankRdBursts::15             2798                       # Per bank write bursts
system.mem_ctrls.perBankWrBursts::0              1661                       # Per bank write bursts
system.mem_ctrls.perBankWrBursts::1              1586                       # Per bank write bursts
system.mem_ctrls.perBankWrBursts::2              1608                       # Per bank write bursts
system.mem_ctrls.perBankWrBursts::3              1836                       # Per bank write bursts
system.mem_ctrls.perBankWrBursts::4              2024                       # Per bank write bursts
system.mem_ctrls.perBankWrBursts::5              1730                       # Per bank write bursts
system.mem_ctrls.perBankWrBursts::6              1742                       # Per bank write bursts
system.mem_ctrls.perBankWrBursts::7              1724                       # Per bank write bursts
system.mem_ctrls.perBankWrBursts::8              1714                       # Per bank write bursts
system.mem_ctrls.perBankWrBursts::9              1734                       # Per bank write bursts
system.mem_ctrls.perBankWrBursts::10             1710                       # Per bank write bursts
system.mem_ctrls.perBankWrBursts::11             1726                       # Per bank write bursts
system.mem_ctrls.perBankWrBursts::12             1746                       # Per bank write bursts
system.mem_ctrls.perBankWrBursts::13             1716                       # Per bank write bursts
system.mem_ctrls.perBankWrBursts::14             1750                       # Per bank write bursts
system.mem_ctrls.perBankWrBursts::15             1724                       # Per bank write bursts
system.mem_ctrls.avgRdQLen                       2.03                       # Average read queue length when enqueuing
system.mem_ctrls.avgWrQLen                      22.89                       # Average write queue length when enqueuing
system.mem_ctrls.totQLat                    950192750                       # Total ticks spent queuing
system.mem_ctrls.totBusLat                  224780000                       # Total ticks spent in databus transfers
system.mem_ctrls.totMemAccLat              1793117750                       # Total ticks spent from burst creation until serviced by the DRAM
system.mem_ctrls.avgQLat                     21136.06                       # Average queueing delay per DRAM burst
system.mem_ctrls.avgBusLat                    5000.00                       # Average bus latency per DRAM burst
system.mem_ctrls.avgMemAccLat                39886.06                       # Average memory access latency per DRAM burst
system.mem_ctrls.numRdRetry                         0                       # Number of times read queue was full causing retry
system.mem_ctrls.numWrRetry                         0                       # Number of times write queue was full causing retry
system.mem_ctrls.readRowHits                    26975                       # Number of row buffer hits during reads
system.mem_ctrls.writeRowHits                   21600                       # Number of row buffer hits during writes
system.mem_ctrls.readRowHitRate                 60.00                       # Row buffer hit rate for reads
system.mem_ctrls.writeRowHitRate                77.82                       # Row buffer hit rate for writes
system.mem_ctrls.readPktSize::0                     0                       # Read request sizes (log2)
system.mem_ctrls.readPktSize::1                     0                       # Read request sizes (log2)
system.mem_ctrls.readPktSize::2                     0                       # Read request sizes (log2)
system.mem_ctrls.readPktSize::3                     0                       # Read request sizes (log2)
system.mem_ctrls.readPktSize::4                     0                       # Read request sizes (log2)
system.mem_ctrls.readPktSize::5                     0                       # Read request sizes (log2)
system.mem_ctrls.readPktSize::6                 44964                       # Read request sizes (log2)
system.mem_ctrls.writePktSize::0                    0                       # Write request sizes (log2)
system.mem_ctrls.writePktSize::1                    0                       # Write request sizes (log2)
system.mem_ctrls.writePktSize::2                    0                       # Write request sizes (log2)
system.mem_ctrls.writePktSize::3                    0                       # Write request sizes (log2)
system.mem_ctrls.writePktSize::4                    0                       # Write request sizes (log2)
system.mem_ctrls.writePktSize::5                    0                       # Write request sizes (log2)
system.mem_ctrls.writePktSize::6                27758                       # Write request sizes (log2)
system.mem_ctrls.rdQLenPdf::0                   22115                       # What read queue length does an incoming req see
system.mem_ctrls.rdQLenPdf::1                   22118                       # What read queue length does an incoming req see
system.mem_ctrls.rdQLenPdf::2                     360                       # What read queue length does an incoming req see
system.mem_ctrls.rdQLenPdf::3                     359                       # What read queue length does an incoming req see
system.mem_ctrls.rdQLenPdf::4                       3                       # What read queue length does an incoming req see
system.mem_ctrls.rdQLenPdf::5                       1                       # What read queue length does an incoming req see
system.mem_ctrls.rdQLenPdf::6                       0                       # What read queue length does an incoming req see
system.mem_ctrls.rdQLenPdf::7                       0                       # What read queue length does an incoming req see
system.mem_ctrls.rdQLenPdf::8                       0                       # What read queue length does an incoming req see
system.mem_ctrls.rdQLenPdf::9                       0                       # What read queue length does an incoming req see
system.mem_ctrls.rdQLenPdf::10                      0                       # What read queue length does an incoming req see
system.mem_ctrls.rdQLenPdf::11                      0                       # What read queue length does an incoming req see
system.mem_ctrls.rdQLenPdf::12                      0                       # What read queue length does an incoming req see
system.mem_ctrls.rdQLenPdf::13                      0                       # What read queue length does an incoming req see
system.mem_ctrls.rdQLenPdf::14                      0                       # What read queue length does an incoming req see
system.mem_ctrls.rdQLenPdf::15                      0                       # What read queue length does an incoming req see
system.mem_ctrls.rdQLenPdf::16                      0                       # What read queue length does an incoming req see
system.mem_ctrls.rdQLenPdf::17                      0                       # What read queue length does an incoming req see
system.mem_ctrls.rdQLenPdf::18                      0                       # What read queue length does an incoming req see
system.mem_ctrls.rdQLenPdf::19                      0                       # What read queue length does an incoming req see
system.mem_ctrls.rdQLenPdf::20                      0                       # What read queue length does an incoming req see
system.mem_ctrls.rdQLenPdf::21                      0                       # What read queue length does an incoming req see
system.mem_ctrls.rdQLenPdf::22                      0                       # What read queue length does an incoming req see
system.mem_ctrls.rdQLenPdf::23                      0                       # What read queue length does an incoming req see
system.mem_ctrls.rdQLenPdf::24                      0                       # What read queue length does an incoming req see
system.mem_ctrls.rdQLenPdf::25                      0                       # What read queue length does an incoming req see
system.mem_ctrls.rdQLenPdf::26                      0                       # What read queue length does an incoming req see
system.mem_ctrls.rdQLenPdf::27                      0                       # What read queue length does an incoming req see
system.mem_ctrls.rdQLenPdf::28                      0                       # What read queue length does an incoming req see
system.mem_ctrls.rdQLenPdf::29                      0                       # What read queue length does an incoming req see
system.mem_ctrls.rdQLenPdf::30                      0                       # What read queue length does an incoming req see
system.mem_ctrls.rdQLenPdf::31                      0                       # What read queue length does an incoming req see
system.mem_ctrls.wrQLenPdf::0                       1                       # What write queue length does an incoming req see
system.mem_ctrls.wrQLenPdf::1                       1                       # What write queue length does an incoming req see
system.mem_ctrls.wrQLenPdf::2                       1                       # What write queue length does an incoming req see
system.mem_ctrls.wrQLenPdf::3                       1                       # What write queue length does an incoming req see
system.mem_ctrls.wrQLenPdf::4                       1                       # What write queue length does an incoming req see
system.mem_ctrls.wrQLenPdf::5                       1                       # What write queue length does an incoming req see
system.mem_ctrls.wrQLenPdf::6                       1                       # What write queue length does an incoming req see
system.mem_ctrls.wrQLenPdf::7                       1                       # What write queue length does an incoming req see
system.mem_ctrls.wrQLenPdf::8                       1                       # What write queue length does an incoming req see
system.mem_ctrls.wrQLenPdf::9                       1                       # What write queue length does an incoming req see
system.mem_ctrls.wrQLenPdf::10                      1                       # What write queue length does an incoming req see
system.mem_ctrls.wrQLenPdf::11                      1                       # What write queue length does an incoming req see
system.mem_ctrls.wrQLenPdf::12                      1                       # What write queue length does an incoming req see
system.mem_ctrls.wrQLenPdf::13                      1                       # What write queue length does an incoming req see
system.mem_ctrls.wrQLenPdf::14                      1                       # What write queue length does an incoming req see
system.mem_ctrls.wrQLenPdf::15                   1488                       # What write queue length does an incoming req see
system.mem_ctrls.wrQLenPdf::16                   1489                       # What write queue length does an incoming req see
system.mem_ctrls.wrQLenPdf::17                   1536                       # What write queue length does an incoming req see
system.mem_ctrls.wrQLenPdf::18                   1537                       # What write queue length does an incoming req see
system.mem_ctrls.wrQLenPdf::19                   1540                       # What write queue length does an incoming req see
system.mem_ctrls.wrQLenPdf::20                   1540                       # What write queue length does an incoming req see
system.mem_ctrls.wrQLenPdf::21                   1540                       # What write queue length does an incoming req see
system.mem_ctrls.wrQLenPdf::22                   1557                       # What write queue length does an incoming req see
system.mem_ctrls.wrQLenPdf::23                   1575                       # What write queue length does an incoming req see
system.mem_ctrls.wrQLenPdf::24                   1558                       # What write queue length does an incoming req see
system.mem_ctrls.wrQLenPdf::25                   1545                       # What write queue length does an incoming req see
system.mem_ctrls.wrQLenPdf::26                   1545                       # What write queue length does an incoming req see
system.mem_ctrls.wrQLenPdf::27                   1553                       # What write queue length does an incoming req see
system.mem_ctrls.wrQLenPdf::28                   1565                       # What write queue length does an incoming req see
system.mem_ctrls.wrQLenPdf::29                   1551                       # What write queue length does an incoming req see
system.mem_ctrls.wrQLenPdf::30                   1540                       # What write queue length does an incoming req see
system.mem_ctrls.wrQLenPdf::31                   1540                       # What write queue length does an incoming req see
system.mem_ctrls.wrQLenPdf::32                   1538                       # What write queue length does an incoming req see
system.mem_ctrls.wrQLenPdf::33                      4                       # What write queue length does an incoming req see
system.mem_ctrls.wrQLenPdf::34                      2                       # What write queue length does an incoming req see
system.mem_ctrls.wrQLenPdf::35                      0                       # What write queue length does an incoming req see
system.mem_ctrls.wrQLenPdf::36                      0                       # What write queue length does an incoming req see
system.mem_ctrls.wrQLenPdf::37                      0                       # What write queue length does an incoming req see
system.mem_ctrls.wrQLenPdf::38                      0                       # What write queue length does an incoming req see
system.mem_ctrls.wrQLenPdf::39                      0                       # What write queue length does an incoming req see
system.mem_ctrls.wrQLenPdf::40                      0                       # What write queue length does an incoming req see
system.mem_ctrls.wrQLenPdf::41                      0                       # What write queue length does an incoming req see
system.mem_ctrls.wrQLenPdf::42                      0                       # What write queue length does an incoming req see
system.mem_ctrls.wrQLenPdf::43                      0                       # What write queue length does an incoming req see
system.mem_ctrls.wrQLenPdf::44                      0                       # What write queue length does an incoming req see
system.mem_ctrls.wrQLenPdf::45                      0                       # What write queue length does an incoming req see
system.mem_ctrls.wrQLenPdf::46                      0                       # What write queue length does an incoming req see
system.mem_ctrls.wrQLenPdf::47                      0                       # What write queue length does an incoming req see
system.mem_ctrls.wrQLenPdf::48                      0                       # What write queue length does an incoming req see
system.mem_ctrls.wrQLenPdf::49                      0                       # What write queue length does an incoming req see
system.mem_ctrls.wrQLenPdf::50                      0                       # What write queue length does an incoming req see
system.mem_ctrls.wrQLenPdf::51                      0                       # What write queue length does an incoming req see
system.mem_ctrls.wrQLenPdf::52                      0                       # What write queue length does an incoming req see
system.mem_ctrls.wrQLenPdf::53                      0                       # What write queue length does an incoming req see
system.mem_ctrls.wrQLenPdf::54                      0                       # What write queue length does an incoming req see
system.mem_ctrls.wrQLenPdf::55                      0                       # What write queue length does an incoming req see
system.mem_ctrls.wrQLenPdf::56                      0                       # What write queue length does an incoming req see
system.mem_ctrls.wrQLenPdf::57                      0                       # What write queue length does an incoming req see
system.mem_ctrls.wrQLenPdf::58                      0                       # What write queue length does an incoming req see
system.mem_ctrls.wrQLenPdf::59                      0                       # What write queue length does an incoming req see
system.mem_ctrls.wrQLenPdf::60                      0                       # What write queue length does an incoming req see
system.mem_ctrls.wrQLenPdf::61                      0                       # What write queue length does an incoming req see
system.mem_ctrls.wrQLenPdf::62                      0                       # What write queue length does an incoming req see
system.mem_ctrls.wrQLenPdf::63                      0                       # What write queue length does an incoming req see
system.mem_ctrls.bytesPerActivate::samples        24112                       # Bytes accessed per row activation
system.mem_ctrls.bytesPerActivate::mean    192.931652                       # Bytes accessed per row activation
system.mem_ctrls.bytesPerActivate::gmean   162.516606                       # Bytes accessed per row activation
system.mem_ctrls.bytesPerActivate::stdev   157.454978                       # Bytes accessed per row activation
system.mem_ctrls.bytesPerActivate::0-127          563      2.33%      2.33% # Bytes accessed per row activation
system.mem_ctrls.bytesPerActivate::128-255        17654     73.22%     75.55% # Bytes accessed per row activation
system.mem_ctrls.bytesPerActivate::256-383         3262     13.53%     89.08% # Bytes accessed per row activation
system.mem_ctrls.bytesPerActivate::384-511         1350      5.60%     94.68% # Bytes accessed per row activation
system.mem_ctrls.bytesPerActivate::512-639          374      1.55%     96.23% # Bytes accessed per row activation
system.mem_ctrls.bytesPerActivate::640-767          290      1.20%     97.43% # Bytes accessed per row activation
system.mem_ctrls.bytesPerActivate::768-895          201      0.83%     98.27% # Bytes accessed per row activation
system.mem_ctrls.bytesPerActivate::896-1023          145      0.60%     98.87% # Bytes accessed per row activation
system.mem_ctrls.bytesPerActivate::1024-1151          273      1.13%    100.00% # Bytes accessed per row activation
system.mem_ctrls.bytesPerActivate::total        24112                       # Bytes accessed per row activation
system.mem_ctrls.rdPerTurnAround::samples         1538                       # Reads before turning the bus around for writes
system.mem_ctrls.rdPerTurnAround::mean      29.222367                       # Reads before turning the bus around for writes
system.mem_ctrls.rdPerTurnAround::gmean     18.542566                       # Reads before turning the bus around for writes
system.mem_ctrls.rdPerTurnAround::stdev    371.222593                       # Reads before turning the bus around for writes
system.mem_ctrls.rdPerTurnAround::0-511          1536     99.87%     99.87% # Reads before turning the bus around for writes
system.mem_ctrls.rdPerTurnAround::1536-2047            1      0.07%     99.93% # Reads before turning the bus around for writes
system.mem_ctrls.rdPerTurnAround::14336-14847            1      0.07%    100.00% # Reads before turning the bus around for writes
system.mem_ctrls.rdPerTurnAround::total          1538                       # Reads before turning the bus around for writes
system.mem_ctrls.wrPerTurnAround::samples         1538                       # Writes before turning the bus around for reads
system.mem_ctrls.wrPerTurnAround::mean      18.030559                       # Writes before turning the bus around for reads
system.mem_ctrls.wrPerTurnAround::gmean     18.021701                       # Writes before turning the bus around for reads
[...]
system.cpu.icache.ReadReq_avg_miss_latency::total 106656.160458                       # average ReadReq miss latency
system.cpu.icache.ReadReq_mshr_misses::.cpu.inst          349                       # number of ReadReq MSHR misses
system.cpu.icache.ReadReq_mshr_misses::total          349                       # number of ReadReq MSHR misses
system.cpu.icache.ReadReq_mshr_miss_latency::.cpu.inst     36525000                       # number of ReadReq MSHR miss cycles
system.cpu.icache.ReadReq_mshr_miss_latency::total     36525000                       # number of ReadReq MSHR miss cycles
system.cpu.icache.ReadReq_mshr_miss_rate::.cpu.inst     0.000013                       # mshr miss rate for ReadReq accesses
system.cpu.icache.ReadReq_mshr_miss_rate::total     0.000013                       # mshr miss rate for ReadReq accesses
system.cpu.icache.ReadReq_avg_mshr_miss_latency::.cpu.inst 104656.160458                       # average ReadReq mshr miss latency
system.cpu.icache.ReadReq_avg_mshr_miss_latency::total 104656.160458                       # average ReadReq mshr miss latency
system.cpu.icache.tags.pwrStateResidencyTicks::UNDEFINED 111441004000                       # Cumulative time (in ticks) in various power states
system.cpu.icache.tags.tagsinuse           331.535105                       # Cycle average of tags in use
system.cpu.icache.tags.total_refs            27157999                       # Total number of references to valid blocks.
system.cpu.icache.tags.sampled_refs               349                       # Sample count of references to valid blocks.
system.cpu.icache.tags.avg_refs          77816.616046                       # Average number of references to valid blocks.
system.cpu.icache.tags.warmup_cycle            113000                       # Cycle when the warmup percentage was hit.
system.cpu.icache.tags.occ_blocks::.cpu.inst   331.535105                       # Average occupied blocks per requestor
system.cpu.icache.tags.occ_percent::.cpu.inst     0.647530                       # Average percentage of cache occupancy
system.cpu.icache.tags.occ_percent::total     0.647530                       # Average percentage of cache occupancy
system.cpu.icache.tags.occ_task_id_blocks::1024          332                       # Occupied blocks per task id
system.cpu.icache.tags.age_task_id_blocks_1024::4          332                       # Occupied blocks per task id
system.cpu.icache.tags.occ_task_id_percent::1024     0.648438                       # Percentage of cache occupancy per task id
system.cpu.icache.tags.tag_accesses         108632345                       # Number of tag accesses
system.cpu.icache.tags.data_accesses        108632345                       # Number of data accesses
system.cpu.dtb.walker.pwrStateResidencyTicks::UNDEFINED 111441004000                       # Cumulative time (in ticks) in various power states
system.cpu.dtb.stage2_mmu.stage2_tlb.walker.pwrStateResidencyTicks::UNDEFINED 111441004000                       # Cumulative time (in ticks) in various power states
system.cpu.dcache.pwrStateResidencyTicks::UNDEFINED 111441004000                       # Cumulative time (in ticks) in various power states
system.cpu.dcache.demand_hits::.cpu.data     34793520                       # number of demand (read+write) hits
system.cpu.dcache.demand_hits::total         34793520                       # number of demand (read+write) hits
system.cpu.dcache.overall_hits::.cpu.data     34796855                       # number of overall hits
system.cpu.dcache.overall_hits::total        34796855                       # number of overall hits
system.cpu.dcache.demand_misses::.cpu.data        43368                       # number of demand (read+write) misses
system.cpu.dcache.demand_misses::total          43368                       # number of demand (read+write) misses
system.cpu.dcache.overall_misses::.cpu.data        43394                       # number of overall misses
system.cpu.dcache.overall_misses::total         43394                       # number of overall misses
system.cpu.dcache.demand_miss_latency::.cpu.data   3721317000                       # number of demand (read+write) miss cycles
system.cpu.dcache.demand_miss_latency::total   3721317000                       # number of demand (read+write) miss cycles
system.cpu.dcache.overall_miss_latency::.cpu.data   3721317000                       # number of overall miss cycles
system.cpu.dcache.overall_miss_latency::total   3721317000                       # number of overall miss cycles
system.cpu.dcache.demand_accesses::.cpu.data     34836888                       # number of demand (read+write) accesses
system.cpu.dcache.demand_accesses::total     34836888                       # number of demand (read+write) accesses
system.cpu.dcache.overall_accesses::.cpu.data     34840249                       # number of overall (read+write) accesses
system.cpu.dcache.overall_accesses::total     34840249                       # number of overall (read+write) accesses
system.cpu.dcache.demand_miss_rate::.cpu.data     0.001245                       # miss rate for demand accesses
system.cpu.dcache.demand_miss_rate::total     0.001245                       # miss rate for demand accesses
system.cpu.dcache.overall_miss_rate::.cpu.data     0.001246                       # miss rate for overall accesses
system.cpu.dcache.overall_miss_rate::total     0.001246                       # miss rate for overall accesses
system.cpu.dcache.demand_avg_miss_latency::.cpu.data 85807.899834                       # average overall miss latency
system.cpu.dcache.demand_avg_miss_latency::total 85807.899834                       # average overall miss latency
system.cpu.dcache.overall_avg_miss_latency::.cpu.data 85756.487072                       # average overall miss latency
system.cpu.dcache.overall_avg_miss_latency::total 85756.487072                       # average overall miss latency
system.cpu.dcache.blocked_cycles::no_mshrs            0                       # number of cycles access was blocked
system.cpu.dcache.blocked_cycles::no_targets            0                       # number of cycles access was blocked
system.cpu.dcache.blocked::no_mshrs                 0                       # number of cycles access was blocked
system.cpu.dcache.blocked::no_targets               0                       # number of cycles access was blocked
system.cpu.dcache.avg_blocked_cycles::no_mshrs          nan                       # average number of cycles each access was blocked
system.cpu.dcache.avg_blocked_cycles::no_targets          nan                       # average number of cycles each access was blocked
system.cpu.dcache.writebacks::.writebacks        30686                       # number of writebacks
system.cpu.dcache.writebacks::total             30686                       # number of writebacks
system.cpu.dcache.demand_mshr_hits::.cpu.data        10066                       # number of demand (read+write) MSHR hits
system.cpu.dcache.demand_mshr_hits::total        10066                       # number of demand (read+write) MSHR hits
system.cpu.dcache.overall_mshr_hits::.cpu.data        10066                       # number of overall MSHR hits
system.cpu.dcache.overall_mshr_hits::total        10066                       # number of overall MSHR hits
system.cpu.dcache.demand_mshr_misses::.cpu.data        33302                       # number of demand (read+write) MSHR misses
system.cpu.dcache.demand_mshr_misses::total        33302                       # number of demand (read+write) MSHR misses
system.cpu.dcache.overall_mshr_misses::.cpu.data        33316                       # number of overall MSHR misses
system.cpu.dcache.overall_mshr_misses::total        33316                       # number of overall MSHR misses
system.cpu.dcache.demand_mshr_miss_latency::.cpu.data   2857833000                       # number of demand (read+write) MSHR miss cycles
system.cpu.dcache.demand_mshr_miss_latency::total   2857833000                       # number of demand (read+write) MSHR miss cycles
system.cpu.dcache.overall_mshr_miss_latency::.cpu.data   2858903000                       # number of overall MSHR miss cycles
system.cpu.dcache.overall_mshr_miss_latency::total   2858903000                       # number of overall MSHR miss cycles
system.cpu.dcache.demand_mshr_miss_rate::.cpu.data     0.000956                       # mshr miss rate for demand accesses
system.cpu.dcache.demand_mshr_miss_rate::total     0.000956                       # mshr miss rate for demand accesses
system.cpu.dcache.overall_mshr_miss_rate::.cpu.data     0.000956                       # mshr miss rate for overall accesses
system.cpu.dcache.overall_mshr_miss_rate::total     0.000956                       # mshr miss rate for overall accesses
system.cpu.dcache.demand_avg_mshr_miss_latency::.cpu.data 85815.656717                       # average overall mshr miss latency
system.cpu.dcache.demand_avg_mshr_miss_latency::total 85815.656717                       # average overall mshr miss latency
system.cpu.dcache.overall_avg_mshr_miss_latency::.cpu.data 85811.712090                       # average overall mshr miss latency
system.cpu.dcache.overall_avg_mshr_miss_latency::total 85811.712090                       # average overall mshr miss latency
system.cpu.dcache.replacements                  32804                       # number of replacements
system.cpu.dcache.ReadReq_hits::.cpu.data     20611019                       # number of ReadReq hits
system.cpu.dcache.ReadReq_hits::total        20611019                       # number of ReadReq hits
system.cpu.dcache.ReadReq_misses::.cpu.data        15692                       # number of ReadReq misses
system.cpu.dcache.ReadReq_misses::total         15692                       # number of ReadReq misses
system.cpu.dcache.ReadReq_miss_latency::.cpu.data    676351000                       # number of ReadReq miss cycles
system.cpu.dcache.ReadReq_miss_latency::total    676351000                       # number of ReadReq miss cycles
system.cpu.dcache.ReadReq_accesses::.cpu.data     20626711                       # number of ReadReq accesses(hits+misses)
system.cpu.dcache.ReadReq_accesses::total     20626711                       # number of ReadReq accesses(hits+misses)
system.cpu.dcache.ReadReq_miss_rate::.cpu.data     0.000761                       # miss rate for ReadReq accesses
system.cpu.dcache.ReadReq_miss_rate::total     0.000761                       # miss rate for ReadReq accesses
system.cpu.dcache.ReadReq_avg_miss_latency::.cpu.data 43101.644150                       # average ReadReq miss latency
system.cpu.dcache.ReadReq_avg_miss_latency::total 43101.644150                       # average ReadReq miss latency
system.cpu.dcache.ReadReq_mshr_hits::.cpu.data         1802                       # number of ReadReq MSHR hits
system.cpu.dcache.ReadReq_mshr_hits::total         1802                       # number of ReadReq MSHR hits
system.cpu.dcache.ReadReq_mshr_misses::.cpu.data        13890                       # number of ReadReq MSHR misses
system.cpu.dcache.ReadReq_mshr_misses::total        13890                       # number of ReadReq MSHR misses
system.cpu.dcache.ReadReq_mshr_miss_latency::.cpu.data    590084000                       # number of ReadReq MSHR miss cycles
system.cpu.dcache.ReadReq_mshr_miss_latency::total    590084000                       # number of ReadReq MSHR miss cycles
system.cpu.dcache.ReadReq_mshr_miss_rate::.cpu.data     0.000673                       # mshr miss rate for ReadReq accesses
system.cpu.dcache.ReadReq_mshr_miss_rate::total     0.000673                       # mshr miss rate for ReadReq accesses
system.cpu.dcache.ReadReq_avg_mshr_miss_latency::.cpu.data 42482.649388                       # average ReadReq mshr miss latency
system.cpu.dcache.ReadReq_avg_mshr_miss_latency::total 42482.649388                       # average ReadReq mshr miss latency
system.cpu.dcache.WriteReq_hits::.cpu.data     14182501                       # number of WriteReq hits
system.cpu.dcache.WriteReq_hits::total       14182501                       # number of WriteReq hits
system.cpu.dcache.WriteReq_misses::.cpu.data        27676                       # number of WriteReq misses
system.cpu.dcache.WriteReq_misses::total        27676                       # number of WriteReq misses
system.cpu.dcache.WriteReq_miss_latency::.cpu.data   3044966000                       # number of WriteReq miss cycles
system.cpu.dcache.WriteReq_miss_latency::total   3044966000                       # number of WriteReq miss cycles
system.cpu.dcache.WriteReq_accesses::.cpu.data     14210177                       # number of WriteReq accesses(hits+misses)
system.cpu.dcache.WriteReq_accesses::total     14210177                       # number of WriteReq accesses(hits+misses)
system.cpu.dcache.WriteReq_miss_rate::.cpu.data     0.001948                       # miss rate for WriteReq accesses
system.cpu.dcache.WriteReq_miss_rate::total     0.001948                       # miss rate for WriteReq accesses
system.cpu.dcache.WriteReq_avg_miss_latency::.cpu.data 110021.896228                       # average WriteReq miss latency
system.cpu.dcache.WriteReq_avg_miss_latency::total 110021.896228                       # average WriteReq miss latency
system.cpu.dcache.WriteReq_mshr_hits::.cpu.data         8264                       # number of WriteReq MSHR hits
system.cpu.dcache.WriteReq_mshr_hits::total         8264                       # number of WriteReq MSHR hits
system.cpu.dcache.WriteReq_mshr_misses::.cpu.data        19412                       # number of WriteReq MSHR misses
system.cpu.dcache.WriteReq_mshr_misses::total        19412                       # number of WriteReq MSHR misses
system.cpu.dcache.WriteReq_mshr_miss_latency::.cpu.data   2267749000                       # number of WriteReq MSHR miss cycles
system.cpu.dcache.WriteReq_mshr_miss_latency::total   2267749000                       # number of WriteReq MSHR miss cycles
system.cpu.dcache.WriteReq_mshr_miss_rate::.cpu.data     0.001366                       # mshr miss rate for WriteReq accesses
system.cpu.dcache.WriteReq_mshr_miss_rate::total     0.001366                       # mshr miss rate for WriteReq accesses
system.cpu.dcache.WriteReq_avg_mshr_miss_latency::.cpu.data 116822.017309                       # average WriteReq mshr miss latency
system.cpu.dcache.WriteReq_avg_mshr_miss_latency::total 116822.017309                       # average WriteReq mshr miss latency
system.cpu.dcache.SoftPFReq_hits::.cpu.data         3335                       # number of SoftPFReq hits
system.cpu.dcache.SoftPFReq_hits::total          3335                       # number of SoftPFReq hits
system.cpu.dcache.SoftPFReq_misses::.cpu.data           26                       # number of SoftPFReq misses
system.cpu.dcache.SoftPFReq_misses::total           26                       # number of SoftPFReq misses
system.cpu.dcache.SoftPFReq_accesses::.cpu.data         3361                       # number of SoftPFReq accesses(hits+misses)
system.cpu.dcache.SoftPFReq_accesses::total         3361                       # number of SoftPFReq accesses(hits+misses)
system.cpu.dcache.SoftPFReq_miss_rate::.cpu.data     0.007736                       # miss rate for SoftPFReq accesses
system.cpu.dcache.SoftPFReq_miss_rate::total     0.007736                       # miss rate for SoftPFReq accesses
system.cpu.dcache.SoftPFReq_mshr_misses::.cpu.data           14                       # number of SoftPFReq MSHR misses
system.cpu.dcache.SoftPFReq_mshr_misses::total           14                       # number of SoftPFReq MSHR misses
system.cpu.dcache.SoftPFReq_mshr_miss_latency::.cpu.data      1070000                       # number of SoftPFReq MSHR miss cycles
system.cpu.dcache.SoftPFReq_mshr_miss_latency::total      1070000                       # number of SoftPFReq MSHR miss cycles
system.cpu.dcache.SoftPFReq_mshr_miss_rate::.cpu.data     0.004165                       # mshr miss rate for SoftPFReq accesses
system.cpu.dcache.SoftPFReq_mshr_miss_rate::total     0.004165                       # mshr miss rate for SoftPFReq accesses
system.cpu.dcache.SoftPFReq_avg_mshr_miss_latency::.cpu.data 76428.571429                       # average SoftPFReq mshr miss latency
system.cpu.dcache.SoftPFReq_avg_mshr_miss_latency::total 76428.571429                       # average SoftPFReq mshr miss latency
system.cpu.dcache.LoadLockedReq_hits::.cpu.data        89082                       # number of LoadLockedReq hits
system.cpu.dcache.LoadLockedReq_hits::total        89082                       # number of LoadLockedReq hits
system.cpu.dcache.LoadLockedReq_accesses::.cpu.data        89082                       # number of LoadLockedReq accesses(hits+misses)
system.cpu.dcache.LoadLockedReq_accesses::total        89082                       # number of LoadLockedReq accesses(hits+misses)
system.cpu.dcache.StoreCondReq_hits::.cpu.data        89082                       # number of StoreCondReq hits
system.cpu.dcache.StoreCondReq_hits::total        89082                       # number of StoreCondReq hits
system.cpu.dcache.StoreCondReq_accesses::.cpu.data        89082                       # number of StoreCondReq accesses(hits+misses)
system.cpu.dcache.StoreCondReq_accesses::total        89082                       # number of StoreCondReq accesses(hits+misses)
system.cpu.dcache.tags.pwrStateResidencyTicks::UNDEFINED 111441004000                       # Cumulative time (in ticks) in various power states
system.cpu.dcache.tags.tagsinuse           510.847945                       # Cycle average of tags in use
system.cpu.dcache.tags.total_refs            35008335                       # Total number of references to valid blocks.
system.cpu.dcache.tags.sampled_refs             33316                       # Sample count of references to valid blocks.
system.cpu.dcache.tags.avg_refs           1050.796464                       # Average number of references to valid blocks.
system.cpu.dcache.tags.warmup_cycle            255000                       # Cycle when the warmup percentage was hit.
system.cpu.dcache.tags.occ_blocks::.cpu.data   510.847945                       # Average occupied blocks per requestor
system.cpu.dcache.tags.occ_percent::.cpu.data     0.997750                       # Average percentage of cache occupancy
system.cpu.dcache.tags.occ_percent::total     0.997750                       # Average percentage of cache occupancy
system.cpu.dcache.tags.occ_task_id_blocks::1024          512                       # Occupied blocks per task id
system.cpu.dcache.tags.age_task_id_blocks_1024::0            2                       # Occupied blocks per task id
system.cpu.dcache.tags.age_task_id_blocks_1024::1           16                       # Occupied blocks per task id
system.cpu.dcache.tags.age_task_id_blocks_1024::2          205                       # Occupied blocks per task id
system.cpu.dcache.tags.age_task_id_blocks_1024::3          256                       # Occupied blocks per task id
system.cpu.dcache.tags.age_task_id_blocks_1024::4           33                       # Occupied blocks per task id
system.cpu.dcache.tags.occ_task_id_percent::1024            1                       # Percentage of cache occupancy per task id
system.cpu.dcache.tags.tag_accesses         140106968                       # Number of tag accesses
system.cpu.dcache.tags.data_accesses        140106968                       # Number of data accesses
system.cpu.itb.walker.pwrStateResidencyTicks::UNDEFINED 111441004000                       # Cumulative time (in ticks) in various power states
system.cpu.itb.stage2_mmu.stage2_tlb.walker.pwrStateResidencyTicks::UNDEFINED 111441004000                       # Cumulative time (in ticks) in various power states

---------- End Simulation Statistics   ----------
