
---------- Begin Simulation Statistics ----------
final_tick                               118154142000                       # Number of ticks from beginning of simulation (restored from checkpoints and never reset)
host_inst_rate                                 215233                       # Simulator instruction rate (inst/s)
host_mem_usage                                 695056                       # Number of bytes of host memory used
host_op_rate                                   217600                       # Simulator op (including micro ops) rate (op/s)
host_seconds                                   464.61                       # Real time elapsed on the host
host_tick_rate                              254306738                       # Simulator tick rate (ticks/s)
sim_freq                                 1000000000000                       # Frequency of simulated ticks
sim_insts                                   100000001                       # Number of instructions simulated
sim_ops                                     101099840                       # Number of ops (including micro ops) simulated
sim_seconds                                  0.118154                       # Number of seconds simulated
sim_ticks                                118154142000                       # Number of ticks simulated
system.cpu.branchPred.BTBCorrect                    0                       # Number of correct BTB predictions (this stat may not work properly.
system.cpu.branchPred.BTBHitPct             84.010328                       # BTB Hit Percentage
system.cpu.branchPred.BTBHits                 4075835                       # Number of BTB hits
system.cpu.branchPred.BTBLookups              4851588                       # Number of BTB lookups
system.cpu.branchPred.RASInCorrect                 22                       # Number of incorrect RAS predictions.
system.cpu.branchPred.condIncorrect            346509                       # Number of conditional branches incorrect
system.cpu.branchPred.condPredicted           5091975                       # Number of conditional branches predicted
system.cpu.branchPred.indirectHits             104081                       # Number of indirect target hits.
system.cpu.branchPred.indirectLookups          685073                       # Number of indirect predictor lookups.
system.cpu.branchPred.indirectMisses           580992                       # Number of indirect misses.
system.cpu.branchPred.lookups                 6508609                       # Number of BP lookups
system.cpu.branchPred.usedRAS                  312410                       # Number of times the RAS was used to get a target.
system.cpu.branchPredindirectMispredicted        37784                       # Number of mispredicted indirect branches.
system.cpu.committedInsts                   100000001                       # Number of instructions committed
system.cpu.committedOps                     101099840                       # Number of ops (including micro ops) committed
system.cpu.cpi                               1.181541                       # CPI: cycles per instruction
system.cpu.discardedOps                        966569                       # Number of ops (including micro ops) which were discarded before commit
system.cpu.dtb.accesses                             0                       # DTB accesses
system.cpu.dtb.align_faults                         0                       # Number of TLB faults due to alignment restrictions
system.cpu.dtb.domain_faults                        0                       # Number of TLB faults due to domain restrictions
system.cpu.dtb.flush_entries                        0                       # Number of entries that have been flushed from TLB
system.cpu.dtb.flush_tlb                            0                       # Number of times complete TLB was flushed
system.cpu.dtb.flush_tlb_asid                       0                       # Number of times TLB was flushed by ASID
system.cpu.dtb.flush_tlb_mva                        0                       # Number of times TLB was flushed by MVA
system.cpu.dtb.flush_tlb_mva_asid                   0                       # Number of times TLB was flushed by MVA & ASID
system.cpu.dtb.hits                                 0                       # DTB hits
system.cpu.dtb.inst_accesses                        0                       # ITB inst accesses
system.cpu.dtb.inst_hits                            0                       # ITB inst hits
system.cpu.dtb.inst_misses                          0                       # ITB inst misses
system.cpu.dtb.misses                               0                       # DTB misses
system.cpu.dtb.perms_faults                         0                       # Number of TLB faults due to permissions restrictions
system.cpu.dtb.prefetch_faults                      0                       # Number of TLB faults due to prefetch
system.cpu.dtb.read_accesses                        0                       # DTB read accesses
system.cpu.dtb.read_hits                            0                       # DTB read hits
system.cpu.dtb.read_misses                          0                       # DTB read misses
system.cpu.dtb.stage2_mmu.stage2_tlb.accesses            0                       # DTB accesses
system.cpu.dtb.stage2_mmu.stage2_tlb.align_faults            0                       # Number of TLB faults due to alignment restrictions
system.cpu.dtb.stage2_mmu.stage2_tlb.domain_faults            0                       # Number of TLB faults due to domain restrictions
system.cpu.dtb.stage2_mmu.stage2_tlb.flush_entries            0                       # Number of entries that have been flushed from TLB
system.cpu.dtb.stage2_mmu.stage2_tlb.flush_tlb            0                       # Number of times complete TLB was flushed
system.cpu.dtb.stage2_mmu.stage2_tlb.flush_tlb_asid            0                       # Number of times TLB was flushed by ASID
system.cpu.dtb.stage2_mmu.stage2_tlb.flush_tlb_mva            0                       # Number of times TLB was flushed by MVA
system.cpu.dtb.stage2_mmu.stage2_tlb.flush_tlb_mva_asid            0                       # Number of times TLB was flushed by MVA & ASID
system.cpu.dtb.stage2_mmu.stage2_tlb.hits            0                       # DTB hits
system.cpu.dtb.stage2_mmu.stage2_tlb.inst_accesses            0                       # ITB inst accesses
system.cpu.dtb.stage2_mmu.stage2_tlb.inst_hits            0                       # ITB inst hits
system.cpu.dtb.stage2_mmu.stage2_tlb.inst_misses            0                       # ITB inst misses
system.cpu.dtb.stage2_mmu.stage2_tlb.misses            0                       # DTB misses
system.cpu.dtb.stage2_mmu.stage2_tlb.perms_faults            0                       # Number of TLB faults due to permissions restrictions
system.cpu.dtb.stage2_mmu.stage2_tlb.prefetch_faults            0                       # Number of TLB faults due to prefetch
system.cpu.dtb.stage2_mmu.stage2_tlb.read_accesses            0                       # DTB read accesses
system.cpu.dtb.stage2_mmu.stage2_tlb.read_hits            0                       # DTB read hits
system.cpu.dtb.stage2_mmu.stage2_tlb.read_misses            0                       # DTB read misses
system.cpu.dtb.stage2_mmu.stage2_tlb.walker.walkRequestOrigin_Requested::Data            0                       # Table walker requests started/completed, data/inst
system.cpu.dtb.stage2_mmu.stage2_tlb.walker.walkRequestOrigin_Requested::Inst            0                       # Table walker requests started/completed, data/inst
system.cpu.dtb.stage2_mmu.stage2_tlb.walker.walkRequestOrigin_Requested::total            0                       # Table walker requests started/completed, data/inst
system.cpu.dtb.stage2_mmu.stage2_tlb.walker.walkRequestOrigin_Completed::Data            0                       # Table walker requests started/completed, data/inst
system.cpu.dtb.stage2_mmu.stage2_tlb.walker.walkRequestOrigin_Completed::Inst            0                       # Table walker requests started/completed, data/inst
system.cpu.dtb.stage2_mmu.stage2_tlb.walker.walkRequestOrigin_Completed::total            0                       # Table walker requests started/completed, data/inst
system.cpu.dtb.stage2_mmu.stage2_tlb.walker.walkRequestOrigin::total            0                       # Table walker requests started/completed, data/inst
system.cpu.dtb.stage2_mmu.stage2_tlb.walker.walks            0                       # Table walker walks requested
system.cpu.dtb.stage2_mmu.stage2_tlb.write_accesses            0                       # DTB write accesses
system.cpu.dtb.stage2_mmu.stage2_tlb.write_hits            0                       # DTB write hits
system.cpu.dtb.stage2_mmu.stage2_tlb.write_misses            0                       # DTB write misses
system.cpu.dtb.walker.walkRequestOrigin_Requested::Data            0                       # Table walker requests started/completed, data/inst
system.cpu.dtb.walker.walkRequestOrigin_Requested::Inst            0                       # Table walker requests started/completed, data/inst
system.cpu.dtb.walker.walkRequestOrigin_Requested::total            0                       # Table walker requests started/completed, data/inst
system.cpu.dtb.walker.walkRequestOrigin_Completed::Data            0                       # Table walker requests started/completed, data/inst
system.cpu.dtb.walker.walkRequestOrigin_Completed::Inst            0                       # Table walker requests started/completed, data/inst
system.cpu.dtb.walker.walkRequestOrigin_Completed::total            0                       # Table walker requests started/completed, data/inst
system.cpu.dtb.walker.walkRequestOrigin::total            0                       # Table walker requests started/completed, data/inst
system.cpu.dtb.walker.walks                         0                       # Table walker walks requested
system.cpu.dtb.write_accesses                       0                       # DTB write accesses
system.cpu.dtb.write_hits                           0                       # DTB write hits
system.cpu.dtb.write_misses                         0                       # DTB write misses
system.cpu.fetch2.amo_instructions                  0                       # Number of memory atomic instructions successfully decoded
system.cpu.fetch2.fp_instructions                   0                       # Number of floating point instructions successfully decoded
system.cpu.fetch2.int_instructions           48878251                       # Number of integer instructions successfully decoded
system.cpu.fetch2.load_instructions          40529638                       # Number of memory load instructions successfully decoded
system.cpu.fetch2.store_instructions          6289516                       # Number of memory store instructions successfully decoded
system.cpu.fetch2.vec_instructions                  0                       # Number of SIMD instructions successfully decoded
system.cpu.idleCycles                         2481687                       # Total number of cycles that the object has spent stopped
system.cpu.ipc                               0.846352                       # IPC: instructions per cycle
system.cpu.itb.accesses                             0                       # DTB accesses
system.cpu.itb.align_faults                         0                       # Number of TLB faults due to alignment restrictions
system.cpu.itb.domain_faults                        0                       # Number of TLB faults due to domain restrictions
system.cpu.itb.flush_entries                        0                       # Number of entries that have been flushed from TLB
system.cpu.itb.flush_tlb                            0                       # Number of times complete TLB was flushed
system.cpu.itb.flush_tlb_asid                       0                       # Number of times TLB was flushed by ASID
system.cpu.itb.flush_tlb_mva                        0                       # Number of times TLB was flushed by MVA
system.cpu.itb.flush_tlb_mva_asid                   0                       # Number of times TLB was flushed by MVA & ASID
system.cpu.itb.hits                                 0                       # DTB hits
system.cpu.itb.inst_accesses                        0                       # ITB inst accesses
system.cpu.itb.inst_hits                            0                       # ITB inst hits
system.cpu.itb.inst_misses                          0                       # ITB inst misses
system.cpu.itb.misses                               0                       # DTB misses
system.cpu.itb.perms_faults                         0                       # Number of TLB faults due to permissions restrictions
system.cpu.itb.prefetch_faults                      0                       # Number of TLB faults due to prefetch
system.cpu.itb.read_accesses                        0                       # DTB read accesses
system.cpu.itb.read_hits                            0                       # DTB read hits
system.cpu.itb.read_misses                          0                       # DTB read misses
system.cpu.itb.stage2_mmu.stage2_tlb.accesses            0                       # DTB accesses
system.cpu.itb.stage2_mmu.stage2_tlb.align_faults            0                       # Number of TLB faults due to alignment restrictions
system.cpu.itb.stage2_mmu.stage2_tlb.domain_faults            0                       # Number of TLB faults due to domain restrictions
system.cpu.itb.stage2_mmu.stage2_tlb.flush_entries            0                       # Number of entries that have been flushed from TLB
system.cpu.itb.stage2_mmu.stage2_tlb.flush_tlb            0                       # Number of times complete TLB was flushed
system.cpu.itb.stage2_mmu.stage2_tlb.flush_tlb_asid            0                       # Number of times TLB was flushed by ASID
system.cpu.itb.stage2_mmu.stage2_tlb.flush_tlb_mva            0                       # Number of times TLB was flushed by MVA
system.cpu.itb.stage2_mmu.stage2_tlb.flush_tlb_mva_asid            0                       # Number of times TLB was flushed by MVA & ASID
system.cpu.itb.stage2_mmu.stage2_tlb.hits            0                       # DTB hits
system.cpu.itb.stage2_mmu.stage2_tlb.inst_accesses            0                       # ITB inst accesses
system.cpu.itb.stage2_mmu.stage2_tlb.inst_hits            0                       # ITB inst hits
system.cpu.itb.stage2_mmu.stage2_tlb.inst_misses            0                       # ITB inst misses
system.cpu.itb.stage2_mmu.stage2_tlb.misses            0                       # DTB misses
system.cpu.itb.stage2_mmu.stage2_tlb.perms_faults            0                       # Number of TLB faults due to permissions restrictions
system.cpu.itb.stage2_mmu.stage2_tlb.prefetch_faults            0                       # Number of TLB faults due to prefetch
system.cpu.itb.stage2_mmu.stage2_tlb.read_accesses            0                       # DTB read accesses
system.cpu.itb.stage2_mmu.stage2_tlb.read_hits            0                       # DTB read hits
system.cpu.itb.stage2_mmu.stage2_tlb.read_misses            0                       # DTB read misses
system.cpu.itb.stage2_mmu.stage2_tlb.walker.walkRequestOrigin_Requested::Data            0                       # Table walker requests started/completed, data/inst
system.cpu.itb.stage2_mmu.stage2_tlb.walker.walkRequestOrigin_Requested::Inst            0                       # Table walker requests started/completed, data/inst
system.cpu.itb.stage2_mmu.stage2_tlb.walker.walkRequestOrigin_Requested::total            0                       # Table walker requests started/completed, data/inst
system.cpu.itb.stage2_mmu.stage2_tlb.walker.walkRequestOrigin_Completed::Data            0                       # Table walker requests started/completed, data/inst
system.cpu.itb.stage2_mmu.stage2_tlb.walker.walkRequestOrigin_Completed::Inst            0                       # Table walker requests started/completed, data/inst
system.cpu.itb.stage2_mmu.stage2_tlb.walker.walkRequestOrigin_Completed::total            0                       # Table walker requests started/completed, data/inst
system.cpu.itb.stage2_mmu.stage2_tlb.walker.walkRequestOrigin::total            0                       # Table walker requests started/completed, data/inst
system.cpu.itb.stage2_mmu.stage2_tlb.walker.walks            0                       # Table walker walks requested
system.cpu.itb.stage2_mmu.stage2_tlb.write_accesses            0                       # DTB write accesses
system.cpu.itb.stage2_mmu.stage2_tlb.write_hits            0                       # DTB write hits
system.cpu.itb.stage2_mmu.stage2_tlb.write_misses            0                       # DTB write misses
system.cpu.itb.walker.walkRequestOrigin_Requested::Data            0                       # Table walker requests started/completed, data/inst
system.cpu.itb.walker.walkRequestOrigin_Requested::Inst            0                       # Table walker requests started/completed, data/inst
system.cpu.itb.walker.walkRequestOrigin_Requested::total            0                       # Table walker requests started/completed, data/inst
system.cpu.itb.walker.walkRequestOrigin_Completed::Data            0                       # Table walker requests started/completed, data/inst
system.cpu.itb.walker.walkRequestOrigin_Completed::Inst            0                       # Table walker requests started/completed, data/inst
system.cpu.itb.walker.walkRequestOrigin_Completed::total            0                       # Table walker requests started/completed, data/inst
system.cpu.itb.walker.walkRequestOrigin::total            0                       # Table walker requests started/completed, data/inst
system.cpu.itb.walker.walks                         0                       # Table walker walks requested
system.cpu.itb.write_accesses                       0                       # DTB write accesses
system.cpu.itb.write_hits                           0                       # DTB write hits
system.cpu.itb.write_misses                         0                       # DTB write misses
system.cpu.numCycles                        118154142                       # number of cpu cycles simulated
system.cpu.numFetchSuspends                         0                       # Number of times Execute suspended instruction fetching
system.cpu.numWorkItemsCompleted                    0                       # number of work items this cpu completed
system.cpu.numWorkItemsStarted                      0                       # number of work items this cpu started
system.cpu.op_class_0::No_OpClass                   0      0.00%      0.00% # Class of committed instruction
system.cpu.op_class_0::IntAlu                55095415     54.50%     54.50% # Class of committed instruction
system.cpu.op_class_0::IntMult                 179332      0.18%     54.67% # Class of committed instruction
system.cpu.op_class_0::IntDiv                       0      0.00%     54.67% # Class of committed instruction
system.cpu.op_class_0::FloatAdd                     0      0.00%     54.67% # Class of committed instruction
system.cpu.op_class_0::FloatCmp                     0      0.00%     54.67% # Class of committed instruction
system.cpu.op_class_0::FloatCvt                     0      0.00%     54.67% # Class of committed instruction
system.cpu.op_class_0::FloatMult                    0      0.00%     54.67% # Class of committed instruction
system.cpu.op_class_0::FloatMultAcc                 0      0.00%     54.67% # Class of committed instruction
system.cpu.op_class_0::FloatDiv                     0      0.00%     54.67% # Class of committed instruction
system.cpu.op_class_0::FloatMisc                    0      0.00%     54.67% # Class of committed instruction
system.cpu.op_class_0::FloatSqrt                    0      0.00%     54.67% # Class of committed instruction
system.cpu.op_class_0::SimdAdd                    380      0.00%     54.67% # Class of committed instruction
system.cpu.op_class_0::SimdAddAcc                   0      0.00%     54.67% # Class of committed instruction
system.cpu.op_class_0::SimdAlu                    470      0.00%     54.67% # Class of committed instruction
system.cpu.op_class_0::SimdCmp                    382      0.00%     54.67% # Class of committed instruction
system.cpu.op_class_0::SimdCvt                      0      0.00%     54.67% # Class of committed instruction
system.cpu.op_class_0::SimdMisc                    53      0.00%     54.67% # Class of committed instruction
system.cpu.op_class_0::SimdMult                     0      0.00%     54.67% # Class of committed instruction
system.cpu.op_class_0::SimdMultAcc                  0      0.00%     54.67% # Class of committed instruction
system.cpu.op_class_0::SimdShift                    0      0.00%     54.67% # Class of committed instruction
system.cpu.op_class_0::SimdShiftAcc                 0      0.00%     54.67% # Class of committed instruction
system.cpu.op_class_0::SimdDiv                      0      0.00%     54.67% # Class of committed instruction
system.cpu.op_class_0::SimdSqrt                     0      0.00%     54.67% # Class of committed instruction
system.cpu.op_class_0::SimdFloatAdd            270788      0.27%     54.94% # Class of committed instruction
system.cpu.op_class_0::SimdFloatAlu                 0      0.00%     54.94% # Class of committed instruction
system.cpu.op_class_0::SimdFloatCmp            263063      0.26%     55.20% # Class of committed instruction
system.cpu.op_class_0::SimdFloatCvt            162169      0.16%     55.36% # Class of committed instruction
system.cpu.op_class_0::SimdFloatDiv             54813      0.05%     55.42% # Class of committed instruction
system.cpu.op_class_0::SimdFloatMisc           487877      0.48%     55.90% # Class of committed instruction
system.cpu.op_class_0::SimdFloatMult            33300      0.03%     55.93% # Class of committed instruction
system.cpu.op_class_0::SimdFloatMultAcc         11115      0.01%     55.94% # Class of committed instruction
system.cpu.op_class_0::SimdFloatSqrt                0      0.00%     55.94% # Class of committed instruction
system.cpu.op_class_0::SimdReduceAdd                0      0.00%     55.94% # Class of committed instruction
system.cpu.op_class_0::SimdReduceAlu                0      0.00%     55.94% # Class of committed instruction
system.cpu.op_class_0::SimdReduceCmp                0      0.00%     55.94% # Class of committed instruction
system.cpu.op_class_0::SimdFloatReduceAdd            0      0.00%     55.94% # Class of committed instruction
system.cpu.op_class_0::SimdFloatReduceCmp            0      0.00%     55.94% # Class of committed instruction
system.cpu.op_class_0::SimdAes                      0      0.00%     55.94% # Class of committed instruction
system.cpu.op_class_0::SimdAesMix                   0      0.00%     55.94% # Class of committed instruction
system.cpu.op_class_0::SimdSha1Hash                 0      0.00%     55.94% # Class of committed instruction
system.cpu.op_class_0::SimdSha1Hash2                0      0.00%     55.94% # Class of committed instruction
system.cpu.op_class_0::SimdSha256Hash               0      0.00%     55.94% # Class of committed instruction
system.cpu.op_class_0::SimdSha256Hash2              0      0.00%     55.94% # Class of committed instruction
system.cpu.op_class_0::SimdShaSigma2                0      0.00%     55.94% # Class of committed instruction
system.cpu.op_class_0::SimdShaSigma3                0      0.00%     55.94% # Class of committed instruction
system.cpu.op_class_0::SimdPredAlu                  0      0.00%     55.94% # Class of committed instruction
system.cpu.op_class_0::MemRead               38133709     37.72%     93.66% # Class of committed instruction
system.cpu.op_class_0::MemWrite               6406974      6.34%    100.00% # Class of committed instruction
system.cpu.op_class_0::FloatMemRead                 0      0.00%    100.00% # Class of committed instruction
system.cpu.op_class_0::FloatMemWrite                0      0.00%    100.00% # Class of committed instruction
system.cpu.op_class_0::IprAccess                    0      0.00%    100.00% # Class of committed instruction
system.cpu.op_class_0::InstPrefetch                 0      0.00%    100.00% # Class of committed instruction
system.cpu.op_class_0::total                101099840                       # Class of committed instruction
system.cpu.tickCycles                       115672455                       # Number of cycles that the object actually ticked
system.cpu.workload.numSyscalls                    35                       # Number of system calls
system.membus.snoop_filter.hit_multi_requests            0                       # Number of requests hitting in the snoop filter with multiple (>1) holders of the requested data.
system.membus.snoop_filter.hit_multi_snoops            0                       # Number of snoops hitting in the snoop filter with multiple (>1) holders of the requested data.
system.membus.snoop_filter.hit_single_requests            0                       # Number of requests hitting in the snoop filter with a single holder of the requested data.
system.membus.snoop_filter.hit_single_snoops            0                       # Number of snoops hitting in the snoop filter with a single holder of the requested data.
system.membus.snoop_filter.tot_requests          4775                       # Total number of requests made to the snoop filter.
system.membus.snoop_filter.tot_snoops               0                       # Total number of snoops made to the snoop filter.
system.tol2bus.snoop_filter.hit_multi_requests          437                       # Number of requests hitting in the snoop filter with multiple (>1) holders of the requested data.
system.tol2bus.snoop_filter.hit_multi_snoops            0                       # Number of snoops hitting in the snoop filter with multiple (>1) holders of the requested data.
system.tol2bus.snoop_filter.hit_single_requests        43563                       # Number of requests hitting in the snoop filter with a single holder of the requested data.
system.tol2bus.snoop_filter.hit_single_snoops            0                       # Number of snoops hitting in the snoop filter with a single holder of the requested data.
system.tol2bus.snoop_filter.tot_requests        88859                       # Total number of requests made to the snoop filter.
system.tol2bus.snoop_filter.tot_snoops              0                       # Total number of snoops made to the snoop filter.
system.membus.pwrStateResidencyTicks::UNDEFINED 118154142000                       # Cumulative time (in ticks) in various power states
system.membus.trans_dist::ReadResp               1113                       # Transaction distribution
system.membus.trans_dist::ReadExReq              3662                       # Transaction distribution
system.membus.trans_dist::ReadExResp             3662                       # Transaction distribution
system.membus.trans_dist::ReadSharedReq          1113                       # Transaction distribution
system.membus.pkt_count_system.l2.mem_side::system.mem_ctrls.port         9550                       # Packet count per connected master and slave (bytes)
system.membus.pkt_count::total                   9550                       # Packet count per connected master and slave (bytes)
system.membus.pkt_size_system.l2.mem_side::system.mem_ctrls.port       611200                       # Cumulative packet size per connected master and slave (bytes)
system.membus.pkt_size::total                  611200                       # Cumulative packet size per connected master and slave (bytes)
system.membus.snoops                                0                       # Total snoops (count)
system.membus.snoopTraffic                          0                       # Total snoop traffic (bytes)
system.membus.snoop_fanout::samples              4775                       # Request fanout histogram
system.membus.snoop_fanout::mean                    0                       # Request fanout histogram
system.membus.snoop_fanout::stdev                   0                       # Request fanout histogram
system.membus.snoop_fanout::underflows              0      0.00%      0.00% # Request fanout histogram
system.membus.snoop_fanout::0                    4775    100.00%    100.00% # Request fanout histogram
system.membus.snoop_fanout::1                       0      0.00%    100.00% # Request fanout histogram
system.membus.snoop_fanout::overflows               0      0.00%    100.00% # Request fanout histogram
system.membus.snoop_fanout::min_value               0                       # Request fanout histogram
system.membus.snoop_fanout::max_value               0                       # Request fanout histogram
system.membus.snoop_fanout::total                4775                       # Request fanout histogram
system.membus.respLayer1.occupancy           44737250                       # Layer occupancy (ticks)
system.membus.respLayer1.utilization              0.0                       # Layer utilization (%)
system.membus.reqLayer0.occupancy             4775000                       # Layer occupancy (ticks)
system.membus.reqLayer0.utilization               0.0                       # Layer utilization (%)
system.tol2bus.pwrStateResidencyTicks::UNDEFINED 118154142000                       # Cumulative time (in ticks) in various power states
system.tol2bus.trans_dist::ReadResp              8799                       # Transaction distribution
system.tol2bus.trans_dist::WritebackDirty        42557                       # Transaction distribution
system.tol2bus.trans_dist::WritebackClean          132                       # Transaction distribution
system.tol2bus.trans_dist::CleanEvict             860                       # Transaction distribution
system.tol2bus.trans_dist::ReadExReq            36511                       # Transaction distribution
system.tol2bus.trans_dist::ReadExResp           36511                       # Transaction distribution
system.tol2bus.trans_dist::ReadCleanReq           869                       # Transaction distribution
system.tol2bus.trans_dist::ReadSharedReq         7930                       # Transaction distribution
system.tol2bus.pkt_count_system.cpu.icache.mem_side::system.l2.cpu_side         1870                       # Packet count per connected master and slave (bytes)
system.tol2bus.pkt_count_system.cpu.dcache.mem_side::system.l2.cpu_side       132299                       # Packet count per connected master and slave (bytes)
system.tol2bus.pkt_count::total                134169                       # Packet count per connected master and slave (bytes)
system.tol2bus.pkt_size_system.cpu.icache.mem_side::system.l2.cpu_side       128128                       # Cumulative packet size per connected master and slave (bytes)
system.tol2bus.pkt_size_system.cpu.dcache.mem_side::system.l2.cpu_side     11135744                       # Cumulative packet size per connected master and slave (bytes)
system.tol2bus.pkt_size::total               11263872                       # Cumulative packet size per connected master and slave (bytes)
system.tol2bus.snoops                               0                       # Total snoops (count)
system.tol2bus.snoopTraffic                         0                       # Total snoop traffic (bytes)
system.tol2bus.snoop_fanout::samples            45310                       # Request fanout histogram
system.tol2bus.snoop_fanout::mean            0.009954                       # Request fanout histogram
system.tol2bus.snoop_fanout::stdev           0.099271                       # Request fanout histogram
system.tol2bus.snoop_fanout::underflows             0      0.00%      0.00% # Request fanout histogram
system.tol2bus.snoop_fanout::0                  44859     99.00%     99.00% # Request fanout histogram
system.tol2bus.snoop_fanout::1                    451      1.00%    100.00% # Request fanout histogram
system.tol2bus.snoop_fanout::2                      0      0.00%    100.00% # Request fanout histogram
system.tol2bus.snoop_fanout::overflows              0      0.00%    100.00% # Request fanout histogram
system.tol2bus.snoop_fanout::min_value              0                       # Request fanout histogram
system.tol2bus.snoop_fanout::max_value              1                       # Request fanout histogram
system.tol2bus.snoop_fanout::total              45310                       # Request fanout histogram
system.tol2bus.reqLayer0.occupancy          259615000                       # Layer occupancy (ticks)
system.tol2bus.reqLayer0.utilization              0.2                       # Layer utilization (%)
system.tol2bus.respLayer1.occupancy         222211993                       # Layer occupancy (ticks)
system.tol2bus.respLayer1.utilization             0.2                       # Layer utilization (%)
system.tol2bus.respLayer0.occupancy           4345999                       # Layer occupancy (ticks)
system.tol2bus.respLayer0.utilization             0.0                       # Layer utilization (%)
system.voltage_domain.voltage                       1                       # Voltage in Volts
system.clk_domain.clock                          1000                       # Clock period in ticks
system.l2.pwrStateResidencyTicks::UNDEFINED 118154142000                       # Cumulative time (in ticks) in various power states
system.l2.demand_hits::.cpu.inst                   64                       # number of demand (read+write) hits
system.l2.demand_hits::.cpu.data                40463                       # number of demand (read+write) hits
system.l2.demand_hits::total                    40527                       # number of demand (read+write) hits
system.l2.overall_hits::.cpu.inst                  64                       # number of overall hits
system.l2.overall_hits::.cpu.data               40463                       # number of overall hits
system.l2.overall_hits::total                   40527                       # number of overall hits
system.l2.demand_misses::.cpu.inst                805                       # number of demand (read+write) misses
system.l2.demand_misses::.cpu.data               3978                       # number of demand (read+write) misses
system.l2.demand_misses::total                   4783                       # number of demand (read+write) misses
system.l2.overall_misses::.cpu.inst               805                       # number of overall misses
system.l2.overall_misses::.cpu.data              3978                       # number of overall misses
system.l2.overall_misses::total                  4783                       # number of overall misses
system.l2.demand_miss_latency::.cpu.inst     83709000                       # number of demand (read+write) miss cycles
system.l2.demand_miss_latency::.cpu.data    426258000                       # number of demand (read+write) miss cycles
system.l2.demand_miss_latency::total        509967000                       # number of demand (read+write) miss cycles
system.l2.overall_miss_latency::.cpu.inst     83709000                       # number of overall miss cycles
system.l2.overall_miss_latency::.cpu.data    426258000                       # number of overall miss cycles
system.l2.overall_miss_latency::total       509967000                       # number of overall miss cycles
system.l2.demand_accesses::.cpu.inst              869                       # number of demand (read+write) accesses
system.l2.demand_accesses::.cpu.data            44441                       # number of demand (read+write) accesses
system.l2.demand_accesses::total                45310                       # number of demand (read+write) accesses
system.l2.overall_accesses::.cpu.inst             869                       # number of overall (read+write) accesses
system.l2.overall_accesses::.cpu.data           44441                       # number of overall (read+write) accesses
system.l2.overall_accesses::total               45310                       # number of overall (read+write) accesses
system.l2.demand_miss_rate::.cpu.inst        0.926352                       # miss rate for demand accesses
system.l2.demand_miss_rate::.cpu.data        0.089512                       # miss rate for demand accesses
system.l2.demand_miss_rate::total            0.105562                       # miss rate for demand accesses
system.l2.overall_miss_rate::.cpu.inst       0.926352                       # miss rate for overall accesses
system.l2.overall_miss_rate::.cpu.data       0.089512                       # miss rate for overall accesses
system.l2.overall_miss_rate::total           0.105562                       # miss rate for overall accesses
system.l2.demand_avg_miss_latency::.cpu.inst 103986.335404                       # average overall miss latency
system.l2.demand_avg_miss_latency::.cpu.data 107153.846154                       # average overall miss latency
system.l2.demand_avg_miss_latency::total 106620.740121                       # average overall miss latency
system.l2.overall_avg_miss_latency::.cpu.inst 103986.335404                       # average overall miss latency
system.l2.overall_avg_miss_latency::.cpu.data 107153.846154                       # average overall miss latency
system.l2.overall_avg_miss_latency::total 106620.740121                       # average overall miss latency
system.l2.blocked_cycles::no_mshrs                  0                       # number of cycles access was blocked
system.l2.blocked_cycles::no_targets                0                       # number of cycles access was blocked
system.l2.blocked::no_mshrs                         0                       # number of cycles access was blocked
system.l2.blocked::no_targets                       0                       # number of cycles access was blocked
system.l2.avg_blocked_cycles::no_mshrs            nan                       # average number of cycles each access was blocked
system.l2.avg_blocked_cycles::no_targets          nan                       # average number of cycles each access was blocked
system.l2.demand_mshr_hits::.cpu.inst               1                       # number of demand (read+write) MSHR hits
system.l2.demand_mshr_hits::.cpu.data               7                       # number of demand (read+write) MSHR hits
system.l2.demand_mshr_hits::total                   8                       # number of demand (read+write) MSHR hits
system.l2.overall_mshr_hits::.cpu.inst              1                       # number of overall MSHR hits
system.l2.overall_mshr_hits::.cpu.data              7                       # number of overall MSHR hits
system.l2.overall_mshr_hits::total                  8                       # number of overall MSHR hits
system.l2.demand_mshr_misses::.cpu.inst           804                       # number of demand (read+write) MSHR misses
system.l2.demand_mshr_misses::.cpu.data          3971                       # number of demand (read+write) MSHR misses
system.l2.demand_mshr_misses::total              4775                       # number of demand (read+write) MSHR misses
system.l2.overall_mshr_misses::.cpu.inst          804                       # number of overall MSHR misses
system.l2.overall_mshr_misses::.cpu.data         3971                       # number of overall MSHR misses
system.l2.overall_mshr_misses::total             4775                       # number of overall MSHR misses
system.l2.demand_mshr_miss_latency::.cpu.inst     67521000                       # number of demand (read+write) MSHR miss cycles
system.l2.demand_mshr_miss_latency::.cpu.data    346246000                       # number of demand (read+write) MSHR miss cycles
system.l2.demand_mshr_miss_latency::total    413767000                       # number of demand (read+write) MSHR miss cycles
system.l2.overall_mshr_miss_latency::.cpu.inst     67521000                       # number of overall MSHR miss cycles
system.l2.overall_mshr_miss_latency::.cpu.data    346246000                       # number of overall MSHR miss cycles
system.l2.overall_mshr_miss_latency::total    413767000                       # number of overall MSHR miss cycles
system.l2.demand_mshr_miss_rate::.cpu.inst     0.925201                       # mshr miss rate for demand accesses
system.l2.demand_mshr_miss_rate::.cpu.data     0.089354                       # mshr miss rate for demand accesses
system.l2.demand_mshr_miss_rate::total       0.105385                       # mshr miss rate for demand accesses
system.l2.overall_mshr_miss_rate::.cpu.inst     0.925201                       # mshr miss rate for overall accesses
system.l2.overall_mshr_miss_rate::.cpu.data     0.089354                       # mshr miss rate for overall accesses
system.l2.overall_mshr_miss_rate::total      0.105385                       # mshr miss rate for overall accesses
system.l2.demand_avg_mshr_miss_latency::.cpu.inst 83981.343284                       # average overall mshr miss latency
system.l2.demand_avg_mshr_miss_latency::.cpu.data 87193.653991                       # average overall mshr miss latency
system.l2.demand_avg_mshr_miss_latency::total 86652.774869                       # average overall mshr miss latency
system.l2.overall_avg_mshr_miss_latency::.cpu.inst 83981.343284                       # average overall mshr miss latency
system.l2.overall_avg_mshr_miss_latency::.cpu.data 87193.653991                       # average overall mshr miss latency
system.l2.overall_avg_mshr_miss_latency::total 86652.774869                       # average overall mshr miss latency
system.l2.replacements                              0                       # number of replacements
system.l2.WritebackDirty_hits::.writebacks        42557                       # number of WritebackDirty hits
system.l2.WritebackDirty_hits::total            42557                       # number of WritebackDirty hits
system.l2.WritebackDirty_accesses::.writebacks        42557                       # number of WritebackDirty accesses(hits+misses)
system.l2.WritebackDirty_accesses::total        42557                       # number of WritebackDirty accesses(hits+misses)
system.l2.WritebackClean_hits::.writebacks          120                       # number of WritebackClean hits
system.l2.WritebackClean_hits::total              120                       # number of WritebackClean hits
system.l2.WritebackClean_accesses::.writebacks          120                       # number of WritebackClean accesses(hits+misses)
system.l2.WritebackClean_accesses::total          120                       # number of WritebackClean accesses(hits+misses)
system.l2.ReadExReq_hits::.cpu.data             32849                       # number of ReadExReq hits
system.l2.ReadExReq_hits::total                 32849                       # number of ReadExReq hits
system.l2.ReadExReq_misses::.cpu.data            3662                       # number of ReadExReq misses
system.l2.ReadExReq_misses::total                3662                       # number of ReadExReq misses
system.l2.ReadExReq_miss_latency::.cpu.data    392727000                       # number of ReadExReq miss cycles
system.l2.ReadExReq_miss_latency::total     392727000                       # number of ReadExReq miss cycles
system.l2.ReadExReq_accesses::.cpu.data         36511                       # number of ReadExReq accesses(hits+misses)
system.l2.ReadExReq_accesses::total             36511                       # number of ReadExReq accesses(hits+misses)
system.l2.ReadExReq_miss_rate::.cpu.data     0.100299                       # miss rate for ReadExReq accesses
system.l2.ReadExReq_miss_rate::total         0.100299                       # miss rate for ReadExReq accesses
system.l2.ReadExReq_avg_miss_latency::.cpu.data 107243.855816                       # average ReadExReq miss latency
system.l2.ReadExReq_avg_miss_latency::total 107243.855816                       # average ReadExReq miss latency
system.l2.ReadExReq_mshr_misses::.cpu.data         3662                       # number of ReadExReq MSHR misses
system.l2.ReadExReq_mshr_misses::total           3662                       # number of ReadExReq MSHR misses
system.l2.ReadExReq_mshr_miss_latency::.cpu.data    319487000                       # number of ReadExReq MSHR miss cycles
system.l2.ReadExReq_mshr_miss_latency::total    319487000                       # number of ReadExReq MSHR miss cycles
system.l2.ReadExReq_mshr_miss_rate::.cpu.data     0.100299                       # mshr miss rate for ReadExReq accesses
system.l2.ReadExReq_mshr_miss_rate::total     0.100299                       # mshr miss rate for ReadExReq accesses
system.l2.ReadExReq_avg_mshr_miss_latency::.cpu.data 87243.855816                       # average ReadExReq mshr miss latency
system.l2.ReadExReq_avg_mshr_miss_latency::total 87243.855816                       # average ReadExReq mshr miss latency
system.l2.ReadCleanReq_hits::.cpu.inst             64                       # number of ReadCleanReq hits
system.l2.ReadCleanReq_hits::total                 64                       # number of ReadCleanReq hits
system.l2.ReadCleanReq_misses::.cpu.inst          805                       # number of ReadCleanReq misses
system.l2.ReadCleanReq_misses::total              805                       # number of ReadCleanReq misses
system.l2.ReadCleanReq_miss_latency::.cpu.inst     83709000                       # number of ReadCleanReq miss cycles
system.l2.ReadCleanReq_miss_latency::total     83709000                       # number of ReadCleanReq miss cycles
system.l2.ReadCleanReq_accesses::.cpu.inst          869                       # number of ReadCleanReq accesses(hits+misses)
system.l2.ReadCleanReq_accesses::total            869                       # number of ReadCleanReq accesses(hits+misses)
system.l2.ReadCleanReq_miss_rate::.cpu.inst     0.926352                       # miss rate for ReadCleanReq accesses
system.l2.ReadCleanReq_miss_rate::total      0.926352                       # miss rate for ReadCleanReq accesses
system.l2.ReadCleanReq_avg_miss_latency::.cpu.inst 103986.335404                       # average ReadCleanReq miss latency
system.l2.ReadCleanReq_avg_miss_latency::total 103986.335404                       # average ReadCleanReq miss latency
system.l2.ReadCleanReq_mshr_hits::.cpu.inst            1                       # number of ReadCleanReq MSHR hits
system.l2.ReadCleanReq_mshr_hits::total             1                       # number of ReadCleanReq MSHR hits
system.l2.ReadCleanReq_mshr_misses::.cpu.inst          804                       # number of ReadCleanReq MSHR misses
system.l2.ReadCleanReq_mshr_misses::total          804                       # number of ReadCleanReq MSHR misses
system.l2.ReadCleanReq_mshr_miss_latency::.cpu.inst     67521000                       # number of ReadCleanReq MSHR miss cycles
system.l2.ReadCleanReq_mshr_miss_latency::total     67521000                       # number of ReadCleanReq MSHR miss cycles
system.l2.ReadCleanReq_mshr_miss_rate::.cpu.inst     0.925201                       # mshr miss rate for ReadCleanReq accesses
system.l2.ReadCleanReq_mshr_miss_rate::total     0.925201                       # mshr miss rate for ReadCleanReq accesses
system.l2.ReadCleanReq_avg_mshr_miss_latency::.cpu.inst 83981.343284                       # average ReadCleanReq mshr miss latency
system.l2.ReadCleanReq_avg_mshr_miss_latency::total 83981.343284                       # average ReadCleanReq mshr miss latency
system.l2.ReadSharedReq_hits::.cpu.data          7614                       # number of ReadSharedReq hits
system.l2.ReadSharedReq_hits::total              7614                       # number of ReadSharedReq hits
system.l2.ReadSharedReq_misses::.cpu.data          316                       # number of ReadSharedReq misses
system.l2.ReadSharedReq_misses::total             316                       # number of ReadSharedReq misses
system.l2.ReadSharedReq_miss_latency::.cpu.data     33531000                       # number of ReadSharedReq miss cycles
system.l2.ReadSharedReq_miss_latency::total     33531000                       # number of ReadSharedReq miss cycles
system.l2.ReadSharedReq_accesses::.cpu.data         7930                       # number of ReadSharedReq accesses(hits+misses)
system.l2.ReadSharedReq_accesses::total          7930                       # number of ReadSharedReq accesses(hits+misses)
system.l2.ReadSharedReq_miss_rate::.cpu.data     0.039849                       # miss rate for ReadSharedReq accesses
system.l2.ReadSharedReq_miss_rate::total     0.039849                       # miss rate for ReadSharedReq accesses
system.l2.ReadSharedReq_avg_miss_latency::.cpu.data 106110.759494                       # average ReadSharedReq miss latency
system.l2.ReadSharedReq_avg_miss_latency::total 106110.759494                       # average ReadSharedReq miss latency
system.l2.ReadSharedReq_mshr_hits::.cpu.data            7                       # number of ReadSharedReq MSHR hits
system.l2.ReadSharedReq_mshr_hits::total            7                       # number of ReadSharedReq MSHR hits
system.l2.ReadSharedReq_mshr_misses::.cpu.data          309                       # number of ReadSharedReq MSHR misses
system.l2.ReadSharedReq_mshr_misses::total          309                       # number of ReadSharedReq MSHR misses
system.l2.ReadSharedReq_mshr_miss_latency::.cpu.data     26759000                       # number of ReadSharedReq MSHR miss cycles
system.l2.ReadSharedReq_mshr_miss_latency::total     26759000                       # number of ReadSharedReq MSHR miss cycles
system.l2.ReadSharedReq_mshr_miss_rate::.cpu.data     0.038966                       # mshr miss rate for ReadSharedReq accesses
system.l2.ReadSharedReq_mshr_miss_rate::total     0.038966                       # mshr miss rate for ReadSharedReq accesses
system.l2.ReadSharedReq_avg_mshr_miss_latency::.cpu.data 86598.705502                       # average ReadSharedReq mshr miss latency
system.l2.ReadSharedReq_avg_mshr_miss_latency::total 86598.705502                       # average ReadSharedReq mshr miss latency
system.l2.tags.pwrStateResidencyTicks::UNDEFINED 118154142000                       # Cumulative time (in ticks) in various power states
system.l2.tags.tagsinuse                  4416.249647                       # Cycle average of tags in use
system.l2.tags.total_refs                       88414                       # Total number of references to valid blocks.
system.l2.tags.sampled_refs                      4775                       # Sample count of references to valid blocks.
system.l2.tags.avg_refs                     18.516021                       # Average number of references to valid blocks.
system.l2.tags.warmup_cycle                     92000                       # Cycle when the warmup percentage was hit.
system.l2.tags.occ_blocks::.cpu.inst       800.118508                       # Average occupied blocks per requestor
system.l2.tags.occ_blocks::.cpu.data      3616.131139                       # Average occupied blocks per requestor
system.l2.tags.occ_percent::.cpu.inst        0.024418                       # Average percentage of cache occupancy
system.l2.tags.occ_percent::.cpu.data        0.110356                       # Average percentage of cache occupancy
system.l2.tags.occ_percent::total            0.134773                       # Average percentage of cache occupancy
system.l2.tags.occ_task_id_blocks::1024          4775                       # Occupied blocks per task id
system.l2.tags.age_task_id_blocks_1024::4         4775                       # Occupied blocks per task id
system.l2.tags.occ_task_id_percent::1024     0.145721                       # Percentage of cache occupancy per task id
system.l2.tags.tag_accesses                    181619                       # Number of tag accesses
system.l2.tags.data_accesses                   181619                       # Number of data accesses
system.cpu_voltage_domain.voltage                   1                       # Voltage in Volts
system.mem_ctrls.pwrStateResidencyTicks::UNDEFINED 118154142000                       # Cumulative time (in ticks) in various power states
system.mem_ctrls.bytes_read::.cpu.inst         102912                       # Number of bytes read from this memory
system.mem_ctrls.bytes_read::.cpu.data         508288                       # Number of bytes read from this memory
system.mem_ctrls.bytes_read::total             611200                       # Number of bytes read from this memory
system.mem_ctrls.bytes_inst_read::.cpu.inst       102912                       # Number of instructions bytes read from this memory
system.mem_ctrls.bytes_inst_read::total        102912                       # Number of instructions bytes read from this memory
system.mem_ctrls.num_reads::.cpu.inst             804                       # Number of read requests responded to by this memory
system.mem_ctrls.num_reads::.cpu.data            3971                       # Number of read requests responded to by this memory
system.mem_ctrls.num_reads::total                4775                       # Number of read requests responded to by this memory
system.mem_ctrls.bw_read::.cpu.inst            870998                       # Total read bandwidth from this memory (bytes/s)
system.mem_ctrls.bw_read::.cpu.data           4301906                       # Total read bandwidth from this memory (bytes/s)
system.mem_ctrls.bw_read::total               5172904                       # Total read bandwidth from this memory (bytes/s)
system.mem_ctrls.bw_inst_read::.cpu.inst       870998                       # Instruction read bandwidth from this memory (bytes/s)
system.mem_ctrls.bw_inst_read::total           870998                       # Instruction read bandwidth from this memory (bytes/s)
system.mem_ctrls.bw_total::.cpu.inst           870998                       # Total bandwidth to/from this memory (bytes/s)
system.mem_ctrls.bw_total::.cpu.data          4301906                       # Total bandwidth to/from this memory (bytes/s)
system.mem_ctrls.bw_total::total              5172904                       # Total bandwidth to/from this memory (bytes/s)
system.mem_ctrls.avgPriority_.cpu.inst::samples      1608.00                       # Average QoS priority value for accepted requests
system.mem_ctrls.avgPriority_.cpu.data::samples      7942.00                       # Average QoS priority value for accepted requests
system.mem_ctrls.priorityMinLatency      0.000000018750                       # per QoS priority minimum request to response latency (s)
system.mem_ctrls.priorityMaxLatency      0.000000584000                       # per QoS priority maximum request to response latency (s)
system.mem_ctrls.numReadWriteTurnArounds            0                       # Number of turnarounds from READ to WRITE
system.mem_ctrls.numWriteReadTurnArounds            0                       # Number of turnarounds from WRITE to READ
system.mem_ctrls.numStayReadState               44667                       # Number of times bus staying in READ state
system.mem_ctrls.numStayWriteState                  0                       # Number of times bus staying in WRITE state
system.mem_ctrls.readReqs                        4775                       # Number of read requests accepted
system.mem_ctrls.writeReqs                          0                       # Number of write requests accepted
system.mem_ctrls.readBursts                      9550                       # Number of DRAM read bursts, including those serviced by the write queue
system.mem_ctrls.writeBursts                        0                       # Number of DRAM write bursts, including those merged in the write queue
system.mem_ctrls.servicedByWrQ                      0                       # Number of DRAM read bursts serviced by the write queue
system.mem_ctrls.mergedWrBursts                     0                       # Number of DRAM write bursts merged with an existing one
system.mem_ctrls.neitherReadNorWriteReqs            0                       # Number of requests that are neither read nor write
system.mem_ctrls.perBankRdBursts::0               544                       # Per bank write bursts
system.mem_ctrls.perBankRdBursts::1               578                       # Per bank write bursts
system.mem_ctrls.perBankRdBursts::2               474                       # Per bank write bursts
system.mem_ctrls.perBankRdBursts::3               666                       # Per bank write bursts
system.mem_ctrls.perBankRdBursts::4               716                       # Per bank write bursts
system.mem_ctrls.perBankRdBursts::5               640                       # Per bank write bursts
system.mem_ctrls.perBankRdBursts::6               654                       # Per bank write bursts
system.mem_ctrls.perBankRdBursts::7               678                       # Per bank write bursts
system.mem_ctrls.perBankRdBursts::8               644                       # Per bank write bursts
system.mem_ctrls.perBankRdBursts::9               654                       # Per bank write bursts
system.mem_ctrls.perBankRdBursts::10              718                       # Per bank write bursts
system.mem_ctrls.perBankRdBursts::11              562                       # Per bank write bursts
system.mem_ctrls.perBankRdBursts::12              482                       # Per bank write bursts
system.mem_ctrls.perBankRdBursts::13              492                       # Per bank write bursts
system.mem_ctrls.perBankRdBursts::14              564                       # Per bank write bursts
system.mem_ctrls.perBankRdBursts::15              484                       # Per bank write bursts
system.mem_ctrls.perBankWrBursts::0                 0                       # Per bank write bursts
system.mem_ctrls.perBankWrBursts::1                 0                       # Per bank write bursts
system.mem_ctrls.perBankWrBursts::2                 0                       # Per bank write bursts
system.mem_ctrls.perBankWrBursts::3                 0                       # Per bank write bursts
system.mem_ctrls.perBankWrBursts::4                 0                       # Per bank write bursts
system.mem_ctrls.perBankWrBursts::5                 0                       # Per bank write bursts
system.mem_ctrls.perBankWrBursts::6                 0                       # Per bank write bursts
system.mem_ctrls.perBankWrBursts::7                 0                       # Per bank write bursts
system.mem_ctrls.perBankWrBursts::8                 0                       # Per bank write bursts
system.mem_ctrls.perBankWrBursts::9                 0                       # Per bank write bursts
system.mem_ctrls.perBankWrBursts::10                0                       # Per bank write bursts
system.mem_ctrls.perBankWrBursts::11                0                       # Per bank write bursts
system.mem_ctrls.perBankWrBursts::12                0                       # Per bank write bursts
system.mem_ctrls.perBankWrBursts::13                0                       # Per bank write bursts
system.mem_ctrls.perBankWrBursts::14                0                       # Per bank write bursts
system.mem_ctrls.perBankWrBursts::15                0                       # Per bank write bursts
system.mem_ctrls.avgRdQLen                       2.02                       # Average read queue length when enqueuing
system.mem_ctrls.avgWrQLen                       0.00                       # Average write queue length when enqueuing
system.mem_ctrls.totQLat                    134022000                       # Total ticks spent queuing
system.mem_ctrls.totBusLat                   47750000                       # Total ticks spent in databus transfers
system.mem_ctrls.totMemAccLat               313084500                       # Total ticks spent from burst creation until serviced by the DRAM
system.mem_ctrls.avgQLat                     14033.72                       # Average queueing delay per DRAM burst
system.mem_ctrls.avgBusLat                    5000.00                       # Average bus latency per DRAM burst
system.mem_ctrls.avgMemAccLat                32783.72                       # Average memory access latency per DRAM burst
system.mem_ctrls.numRdRetry                         0                       # Number of times read queue was full causing retry
system.mem_ctrls.numWrRetry                         0                       # Number of times write queue was full causing retry
system.mem_ctrls.readRowHits                     7268                       # Number of row buffer hits during reads
system.mem_ctrls.writeRowHits                       0                       # Number of row buffer hits during writes
system.mem_ctrls.readRowHitRate                 76.10                       # Row buffer hit rate for reads
system.mem_ctrls.writeRowHitRate                  nan                       # Row buffer hit rate for writes
system.mem_ctrls.readPktSize::0                     0                       # Read request sizes (log2)
system.mem_ctrls.readPktSize::1                     0                       # Read request sizes (log2)
system.mem_ctrls.readPktSize::2                     0                       # Read request sizes (log2)
system.mem_ctrls.readPktSize::3                     0                       # Read request sizes (log2)
system.mem_ctrls.readPktSize::4                     0                       # Read request sizes (log2)
system.mem_ctrls.readPktSize::5                     0                       # Read request sizes (log2)
system.mem_ctrls.readPktSize::6                  9550                       # Read request sizes (log2)
system.mem_ctrls.writePktSize::0                    0                       # Write request sizes (log2)
system.mem_ctrls.writePktSize::1                    0                       # Write request sizes (log2)
system.mem_ctrls.writePktSize::2                    0                       # Write request sizes (log2)
system.mem_ctrls.writePktSize::3                    0                       # Write request sizes (log2)
system.mem_ctrls.writePktSize::4                    0                       # Write request sizes (log2)
system.mem_ctrls.writePktSize::5                    0                       # Write request sizes (log2)
system.mem_ctrls.writePktSize::6                    0                       # Write request sizes (log2)
system.mem_ctrls.rdQLenPdf::0                    4561                       # What read queue length does an incoming req see
system.mem_ctrls.rdQLenPdf::1                    4570                       # What read queue length does an incoming req see
system.mem_ctrls.rdQLenPdf::2                     210                       # What read queue length does an incoming req see
system.mem_ctrls.rdQLenPdf::3                     201                       # What read queue length does an incoming req see
system.mem_ctrls.rdQLenPdf::4                       4                       # What read queue length does an incoming req see
system.mem_ctrls.rdQLenPdf::5                       4                       # What read queue length does an incoming req see
system.mem_ctrls.rdQLenPdf::6                       0                       # What read queue length does an incoming req see
system.mem_ctrls.rdQLenPdf::7                       0                       # What read queue length does an incoming req see
system.mem_ctrls.rdQLenPdf::8                       0                       # What read queue length does an incoming req see
system.mem_ctrls.rdQLenPdf::9                       0                       # What read queue length does an incoming req see
system.mem_ctrls.rdQLenPdf::10                      0                       # What read queue length does an incoming req see
system.mem_ctrls.rdQLenPdf::11                      0                       # What read queue length does an incoming req see
system.mem_ctrls.rdQLenPdf::12                      0                       # What read queue length does an incoming req see
system.mem_ctrls.rdQLenPdf::13                      0                       # What read queue length does an incoming req see
system.mem_ctrls.rdQLenPdf::14                      0                       # What read queue length does an incoming req see
system.mem_ctrls.rdQLenPdf::15                      0                       # What read queue length does an incoming req see
system.mem_ctrls.rdQLenPdf::16                      0                       # What read queue length does an incoming req see
system.mem_ctrls.rdQLenPdf::17                      0                       # What read queue length does an incoming req see
system.mem_ctrls.rdQLenPdf::18                      0                       # What read queue length does an incoming req see
system.mem_ctrls.rdQLenPdf::19                      0                       # What read queue length does an incoming req see
system.mem_ctrls.rdQLenPdf::20                      0                       # What read queue length does an incoming req see
system.mem_ctrls.rdQLenPdf::21                      0                       # What read queue length does an incoming req see
system.mem_ctrls.rdQLenPdf::22                      0                       # What read queue length does an incoming req see
system.mem_ctrls.rdQLenPdf::23                      0                       # What read queue length does an incoming req see
system.mem_ctrls.rdQLenPdf::24                      0                       # What read queue length does an incoming req see
system.mem_ctrls.rdQLenPdf::25                      0                       # What read queue length does an incoming req see
system.mem_ctrls.rdQLenPdf::26                      0                       # What read queue length does an incoming req see
system.mem_ctrls.rdQLenPdf::27                      0                       # What read queue length does an incoming req see
system.mem_ctrls.rdQLenPdf::28                      0                       # What read queue length does an incoming req see
system.mem_ctrls.rdQLenPdf::29                      0                       # What read queue length does an incoming req see
system.mem_ctrls.rdQLenPdf::30                      0                       # What read queue length does an incoming req see
system.mem_ctrls.rdQLenPdf::31                      0                       # What read queue length does an incoming req see
system.mem_ctrls.wrQLenPdf::0                       0                       # What write queue length does an incoming req see
system.mem_ctrls.wrQLenPdf::1                       0                       # What write queue length does an incoming req see
system.mem_ctrls.wrQLenPdf::2                       0                       # What write queue length does an incoming req see
system.mem_ctrls.wrQLenPdf::3                       0                       # What write queue length does an incoming req see
system.mem_ctrls.wrQLenPdf::4                       0                       # What write queue length does an incoming req see
system.mem_ctrls.wrQLenPdf::5                       0                       # What write queue length does an incoming req see
system.mem_ctrls.wrQLenPdf::6                       0                       # What write queue length does an incoming req see
system.mem_ctrls.wrQLenPdf::7                       0                       # What write queue length does an incoming req see
system.mem_ctrls.wrQLenPdf::8                       0                       # What write queue length does an incoming req see
system.mem_ctrls.wrQLenPdf::9                       0                       # What write queue length does an incoming req see
system.mem_ctrls.wrQLenPdf::10                      0                       # What write queue length does an incoming req see
system.mem_ctrls.wrQLenPdf::11                      0                       # What write queue length does an incoming req see
system.mem_ctrls.wrQLenPdf::12                      0                       # What write queue length does an incoming req see
system.mem_ctrls.wrQLenPdf::13                      0                       # What write queue length does an incoming req see
system.mem_ctrls.wrQLenPdf::14                      0                       # What write queue length does an incoming req see
system.mem_ctrls.wrQLenPdf::15                      0                       # What write queue length does an incoming req see
system.mem_ctrls.wrQLenPdf::16                      0                       # What write queue length does an incoming req see
system.mem_ctrls.wrQLenPdf::17                      0                       # What write queue length does an incoming req see
system.mem_ctrls.wrQLenPdf::18                      0                       # What write queue length does an incoming req see
system.mem_ctrls.wrQLenPdf::19                      0                       # What write queue length does an incoming req see
system.mem_ctrls.wrQLenPdf::20                      0                       # What write queue length does an incoming req see
system.mem_ctrls.wrQLenPdf::21                      0                       # What write queue length does an incoming req see
system.mem_ctrls.wrQLenPdf::22                      0                       # What write queue length does an incoming req see
system.mem_ctrls.wrQLenPdf::23                      0                       # What write queue length does an incoming req see
system.mem_ctrls.wrQLenPdf::24                      0                       # What write queue length does an incoming req see
system.mem_ctrls.wrQLenPdf::25                      0                       # What write queue length does an incoming req see
system.mem_ctrls.wrQLenPdf::26                      0                       # What write queue length does an incoming req see
system.mem_ctrls.wrQLenPdf::27                      0                       # What write queue length does an incoming req see
system.mem_ctrls.wrQLenPdf::28                      0                       # What write queue length does an incoming req see
system.mem_ctrls.wrQLenPdf::29                      0                       # What write queue length does an incoming req see
system.mem_ctrls.wrQLenPdf::30                      0                       # What write queue length does an incoming req see
system.mem_ctrls.wrQLenPdf::31                      0                       # What write queue length does an incoming req see
system.mem_ctrls.wrQLenPdf::32                      0                       # What write queue length does an incoming req see
system.mem_ctrls.wrQLenPdf::33                      0                       # What write queue length does an incoming req see
system.mem_ctrls.wrQLenPdf::34                      0                       # What write queue length does an incoming req see
system.mem_ctrls.wrQLenPdf::35                      0                       # What write queue length does an incoming req see
system.mem_ctrls.wrQLenPdf::36                      0                       # What write queue length does an incoming req see
system.mem_ctrls.wrQLenPdf::37                      0                       # What write queue length does an incoming req see
system.mem_ctrls.wrQLenPdf::38                      0                       # What write queue length does an incoming req see
system.mem_ctrls.wrQLenPdf::39                      0                       # What write queue length does an incoming req see
system.mem_ctrls.wrQLenPdf::40                      0                       # What write queue length does an incoming req see
system.mem_ctrls.wrQLenPdf::41                      0                       # What write queue length does an incoming req see
system.mem_ctrls.wrQLenPdf::42                      0                       # What write queue length does an incoming req see
system.mem_ctrls.wrQLenPdf::43                      0                       # What write queue length does an incoming req see
system.mem_ctrls.wrQLenPdf::44                      0                       # What write queue length does an incoming req see
system.mem_ctrls.wrQLenPdf::45                      0                       # What write queue length does an incoming req see
system.mem_ctrls.wrQLenPdf::46                      0                       # What write queue length does an incoming req see
system.mem_ctrls.wrQLenPdf::47                      0                       # What write queue length does an incoming req see
system.mem_ctrls.wrQLenPdf::48                      0                       # What write queue length does an incoming req see
system.mem_ctrls.wrQLenPdf::49                      0                       # What write queue length does an incoming req see
system.mem_ctrls.wrQLenPdf::50                      0                       # What write queue length does an incoming req see
system.mem_ctrls.wrQLenPdf::51                      0                       # What write queue length does an incoming req see
system.mem_ctrls.wrQLenPdf::52                      0                       # What write queue length does an incoming req see
system.mem_ctrls.wrQLenPdf::53                      0                       # What write queue length does an incoming req see
system.mem_ctrls.wrQLenPdf::54                      0                       # What write queue length does an incoming req see
system.mem_ctrls.wrQLenPdf::55                      0                       # What write queue length does an incoming req see
system.mem_ctrls.wrQLenPdf::56                      0                       # What write queue length does an incoming req see
system.mem_ctrls.wrQLenPdf::57                      0                       # What write queue length does an incoming req see
system.mem_ctrls.wrQLenPdf::58                      0                       # What write queue length does an incoming req see
system.mem_ctrls.wrQLenPdf::59                      0                       # What write queue length does an incoming req see
system.mem_ctrls.wrQLenPdf::60                      0                       # What write queue length does an incoming req see
system.mem_ctrls.wrQLenPdf::61                      0                       # What write queue length does an incoming req see
system.mem_ctrls.wrQLenPdf::62                      0                       # What write queue length does an incoming req see
system.mem_ctrls.wrQLenPdf::63                      0                       # What write queue length does an incoming req see
system.mem_ctrls.bytesPerActivate::samples         2282                       # Bytes accessed per row activation
system.mem_ctrls.bytesPerActivate::mean    267.835232                       # Bytes accessed per row activation
system.mem_ctrls.bytesPerActivate::gmean   186.459429                       # Bytes accessed per row activation
system.mem_ctrls.bytesPerActivate::stdev   295.580946                       # Bytes accessed per row activation
system.mem_ctrls.bytesPerActivate::128-255         1752     76.77%     76.77% # Bytes accessed per row activation
system.mem_ctrls.bytesPerActivate::256-383           82      3.59%     80.37% # Bytes accessed per row activation
system.mem_ctrls.bytesPerActivate::384-511           72      3.16%     83.52% # Bytes accessed per row activation
system.mem_ctrls.bytesPerActivate::512-639           49      2.15%     85.67% # Bytes accessed per row activation
system.mem_ctrls.bytesPerActivate::640-767           33      1.45%     87.12% # Bytes accessed per row activation
system.mem_ctrls.bytesPerActivate::768-895           26      1.14%     88.26% # Bytes accessed per row activation
system.mem_ctrls.bytesPerActivate::896-1023           18      0.79%     89.04% # Bytes accessed per row activation
system.mem_ctrls.bytesPerActivate::1024-1151          250     10.96%    100.00% # Bytes accessed per row activation
system.mem_ctrls.bytesPerActivate::total         2282                       # Bytes accessed per row activation
system.mem_ctrls.bytesReadDRAM                 611200                       # Total number of bytes read from DRAM
system.mem_ctrls.bytesReadWrQ                       0                       # Total number of bytes read from write queue
system.mem_ctrls.bytesWritten                       0                       # Total number of bytes written to DRAM
system.mem_ctrls.bytesReadSys                  611200                       # Total read bytes from the system interface side
system.mem_ctrls.bytesWrittenSys                    0                       # Total written bytes from the system interface side
system.mem_ctrls.avgRdBW                         5.17                       # Average DRAM read bandwidth in MiByte/s
system.mem_ctrls.avgWrBW                         0.00                       # Average achieved write bandwidth in MiByte/s
system.mem_ctrls.avgRdBWSys                      5.17                       # Average system read bandwidth in MiByte/s
system.mem_ctrls.avgWrBWSys                      0.00                       # Average system write bandwidth in MiByte/s
system.mem_ctrls.peakBW                      12800.00                       # Theoretical peak bandwidth in MiByte/s
system.mem_ctrls.busUtil                         0.04                       # Data bus utilization in percentage
system.mem_ctrls.busUtilRead                     0.04                       # Data bus utilization in percentage for reads
system.mem_ctrls.busUtilWrite                    0.00                       # Data bus utilization in percentage for writes
system.mem_ctrls.totGap                   79154210000                       # Total gap between requests
system.mem_ctrls.avgGap                   16576797.91                       # Average gap between requests
system.mem_ctrls.masterReadBytes::.cpu.inst       102912                       # Per-master bytes read from memory
system.mem_ctrls.masterReadBytes::.cpu.data       508288                       # Per-master bytes read from memory
system.mem_ctrls.masterReadRate::.cpu.inst 870997.819103116984                       # Per-master bytes read from memory rate (Bytes/sec)
system.mem_ctrls.masterReadRate::.cpu.data 4301905.895097608678                       # Per-master bytes read from memory rate (Bytes/sec)
system.mem_ctrls.masterReadAccesses::.cpu.inst         1608                       # Per-master read serviced memory accesses
system.mem_ctrls.masterReadAccesses::.cpu.data         7942                       # Per-master read serviced memory accesses
system.mem_ctrls.masterReadTotalLat::.cpu.inst     48467000                       # Per-master read total memory access latency
system.mem_ctrls.masterReadTotalLat::.cpu.data    264617500                       # Per-master read total memory access latency
system.mem_ctrls.masterReadAvgLat::.cpu.inst     30141.17                       # Per-master read average memory access latency
system.mem_ctrls.masterReadAvgLat::.cpu.data     33318.75                       # Per-master read average memory access latency
system.mem_ctrls.pageHitRate                    76.10                       # Row buffer hit rate, read and write combined
system.mem_ctrls.rank1.actEnergy              7447020                       # Energy for activate commands per rank (pJ)
[...]
system.cpu.icache.ReadReq_avg_miss_latency::.cpu.inst 103052.934407                       # average ReadReq miss latency
system.cpu.icache.ReadReq_avg_miss_latency::total 103052.934407                       # average ReadReq miss latency
system.cpu.icache.ReadReq_mshr_misses::.cpu.inst          869                       # number of ReadReq MSHR misses
system.cpu.icache.ReadReq_mshr_misses::total          869                       # number of ReadReq MSHR misses
system.cpu.icache.ReadReq_mshr_miss_latency::.cpu.inst     87815000                       # number of ReadReq MSHR miss cycles
system.cpu.icache.ReadReq_mshr_miss_latency::total     87815000                       # number of ReadReq MSHR miss cycles
system.cpu.icache.ReadReq_mshr_miss_rate::.cpu.inst     0.000057                       # mshr miss rate for ReadReq accesses
system.cpu.icache.ReadReq_mshr_miss_rate::total     0.000057                       # mshr miss rate for ReadReq accesses
system.cpu.icache.ReadReq_avg_mshr_miss_latency::.cpu.inst 101052.934407                       # average ReadReq mshr miss latency
system.cpu.icache.ReadReq_avg_mshr_miss_latency::total 101052.934407                       # average ReadReq mshr miss latency
system.cpu.icache.tags.pwrStateResidencyTicks::UNDEFINED 118154142000                       # Cumulative time (in ticks) in various power states
system.cpu.icache.tags.tagsinuse           733.218989                       # Cycle average of tags in use
system.cpu.icache.tags.total_refs            15178512                       # Total number of references to valid blocks.
system.cpu.icache.tags.sampled_refs               869                       # Sample count of references to valid blocks.
system.cpu.icache.tags.avg_refs          17466.642117                       # Average number of references to valid blocks.
system.cpu.icache.tags.warmup_cycle            113000                       # Cycle when the warmup percentage was hit.
system.cpu.icache.tags.occ_blocks::.cpu.inst   733.218989                       # Average occupied blocks per requestor
system.cpu.icache.tags.occ_percent::.cpu.inst     0.716034                       # Average percentage of cache occupancy
system.cpu.icache.tags.occ_percent::total     0.716034                       # Average percentage of cache occupancy
system.cpu.icache.tags.occ_task_id_blocks::1024          737                       # Occupied blocks per task id
system.cpu.icache.tags.age_task_id_blocks_1024::4          737                       # Occupied blocks per task id
system.cpu.icache.tags.occ_task_id_percent::1024     0.719727                       # Percentage of cache occupancy per task id
system.cpu.icache.tags.tag_accesses          30357893                       # Number of tag accesses
system.cpu.icache.tags.data_accesses         30357893                       # Number of data accesses
system.cpu.dtb.walker.pwrStateResidencyTicks::UNDEFINED 118154142000                       # Cumulative time (in ticks) in various power states
system.cpu.dtb.stage2_mmu.stage2_tlb.walker.pwrStateResidencyTicks::UNDEFINED 118154142000                       # Cumulative time (in ticks) in various power states
system.cpu.dcache.pwrStateResidencyTicks::UNDEFINED 118154142000                       # Cumulative time (in ticks) in various power states
system.cpu.dcache.demand_hits::.cpu.data     43831221                       # number of demand (read+write) hits
system.cpu.dcache.demand_hits::total         43831221                       # number of demand (read+write) hits
system.cpu.dcache.overall_hits::.cpu.data     43839802                       # number of overall hits
system.cpu.dcache.overall_hits::total        43839802                       # number of overall hits
system.cpu.dcache.demand_misses::.cpu.data        49145                       # number of demand (read+write) misses
system.cpu.dcache.demand_misses::total          49145                       # number of demand (read+write) misses
system.cpu.dcache.overall_misses::.cpu.data        49217                       # number of overall misses
system.cpu.dcache.overall_misses::total         49217                       # number of overall misses
system.cpu.dcache.demand_miss_latency::.cpu.data   1790144000                       # number of demand (read+write) miss cycles
system.cpu.dcache.demand_miss_latency::total   1790144000                       # number of demand (read+write) miss cycles
system.cpu.dcache.overall_miss_latency::.cpu.data   1790144000                       # number of overall miss cycles
system.cpu.dcache.overall_miss_latency::total   1790144000                       # number of overall miss cycles
system.cpu.dcache.demand_accesses::.cpu.data     43880366                       # number of demand (read+write) accesses
system.cpu.dcache.demand_accesses::total     43880366                       # number of demand (read+write) accesses
system.cpu.dcache.overall_accesses::.cpu.data     43889019                       # number of overall (read+write) accesses
system.cpu.dcache.overall_accesses::total     43889019                       # number of overall (read+write) accesses
system.cpu.dcache.demand_miss_rate::.cpu.data     0.001120                       # miss rate for demand accesses
system.cpu.dcache.demand_miss_rate::total     0.001120                       # miss rate for demand accesses
system.cpu.dcache.overall_miss_rate::.cpu.data     0.001121                       # miss rate for overall accesses
system.cpu.dcache.overall_miss_rate::total     0.001121                       # miss rate for overall accesses
system.cpu.dcache.demand_avg_miss_latency::.cpu.data 36425.760505                       # average overall miss latency
system.cpu.dcache.demand_avg_miss_latency::total 36425.760505                       # average overall miss latency
system.cpu.dcache.overall_avg_miss_latency::.cpu.data 36372.472926                       # average overall miss latency
system.cpu.dcache.overall_avg_miss_latency::total 36372.472926                       # average overall miss latency
system.cpu.dcache.blocked_cycles::no_mshrs            0                       # number of cycles access was blocked
system.cpu.dcache.blocked_cycles::no_targets            0                       # number of cycles access was blocked
system.cpu.dcache.blocked::no_mshrs                 0                       # number of cycles access was blocked
system.cpu.dcache.blocked::no_targets               0                       # number of cycles access was blocked
system.cpu.dcache.avg_blocked_cycles::no_mshrs          nan                       # average number of cycles each access was blocked
system.cpu.dcache.avg_blocked_cycles::no_targets          nan                       # average number of cycles each access was blocked
system.cpu.dcache.writebacks::.writebacks        42557                       # number of writebacks
system.cpu.dcache.writebacks::total             42557                       # number of writebacks
system.cpu.dcache.demand_mshr_hits::.cpu.data         4750                       # number of demand (read+write) MSHR hits
system.cpu.dcache.demand_mshr_hits::total         4750                       # number of demand (read+write) MSHR hits
system.cpu.dcache.overall_mshr_hits::.cpu.data         4750                       # number of overall MSHR hits
system.cpu.dcache.overall_mshr_hits::total         4750                       # number of overall MSHR hits
system.cpu.dcache.demand_mshr_misses::.cpu.data        44395                       # number of demand (read+write) MSHR misses
system.cpu.dcache.demand_mshr_misses::total        44395                       # number of demand (read+write) MSHR misses
system.cpu.dcache.overall_mshr_misses::.cpu.data        44441                       # number of overall MSHR misses
system.cpu.dcache.overall_mshr_misses::total        44441                       # number of overall MSHR misses
system.cpu.dcache.demand_mshr_miss_latency::.cpu.data   1406339000                       # number of demand (read+write) MSHR miss cycles
system.cpu.dcache.demand_mshr_miss_latency::total   1406339000                       # number of demand (read+write) MSHR miss cycles
system.cpu.dcache.overall_mshr_miss_latency::.cpu.data   1411336000                       # number of overall MSHR miss cycles
system.cpu.dcache.overall_mshr_miss_latency::total   1411336000                       # number of overall MSHR miss cycles
system.cpu.dcache.demand_mshr_miss_rate::.cpu.data     0.001012                       # mshr miss rate for demand accesses
system.cpu.dcache.demand_mshr_miss_rate::total     0.001012                       # mshr miss rate for demand accesses
system.cpu.dcache.overall_mshr_miss_rate::.cpu.data     0.001013                       # mshr miss rate for overall accesses
system.cpu.dcache.overall_mshr_miss_rate::total     0.001013                       # mshr miss rate for overall accesses
system.cpu.dcache.demand_avg_mshr_miss_latency::.cpu.data 31677.869129                       # average overall mshr miss latency
system.cpu.dcache.demand_avg_mshr_miss_latency::total 31677.869129                       # average overall mshr miss latency
system.cpu.dcache.overall_avg_mshr_miss_latency::.cpu.data 31757.521208                       # average overall mshr miss latency
system.cpu.dcache.overall_avg_mshr_miss_latency::total 31757.521208                       # average overall mshr miss latency
system.cpu.dcache.replacements                  43417                       # number of replacements
system.cpu.dcache.ReadReq_hits::.cpu.data     37523681                       # number of ReadReq hits
system.cpu.dcache.ReadReq_hits::total        37523681                       # number of ReadReq hits
system.cpu.dcache.ReadReq_misses::.cpu.data         7945                       # number of ReadReq misses
system.cpu.dcache.ReadReq_misses::total          7945                       # number of ReadReq misses
system.cpu.dcache.ReadReq_miss_latency::.cpu.data    233752000                       # number of ReadReq miss cycles
system.cpu.dcache.ReadReq_miss_latency::total    233752000                       # number of ReadReq miss cycles
system.cpu.dcache.ReadReq_accesses::.cpu.data     37531626                       # number of ReadReq accesses(hits+misses)
system.cpu.dcache.ReadReq_accesses::total     37531626                       # number of ReadReq accesses(hits+misses)
system.cpu.dcache.ReadReq_miss_rate::.cpu.data     0.000212                       # miss rate for ReadReq accesses
system.cpu.dcache.ReadReq_miss_rate::total     0.000212                       # miss rate for ReadReq accesses
system.cpu.dcache.ReadReq_avg_miss_latency::.cpu.data 29421.271240                       # average ReadReq miss latency
system.cpu.dcache.ReadReq_avg_miss_latency::total 29421.271240                       # average ReadReq miss latency
system.cpu.dcache.ReadReq_mshr_hits::.cpu.data           61                       # number of ReadReq MSHR hits
system.cpu.dcache.ReadReq_mshr_hits::total           61                       # number of ReadReq MSHR hits
system.cpu.dcache.ReadReq_mshr_misses::.cpu.data         7884                       # number of ReadReq MSHR misses
system.cpu.dcache.ReadReq_mshr_misses::total         7884                       # number of ReadReq MSHR misses
system.cpu.dcache.ReadReq_mshr_miss_latency::.cpu.data    214197000                       # number of ReadReq MSHR miss cycles
system.cpu.dcache.ReadReq_mshr_miss_latency::total    214197000                       # number of ReadReq MSHR miss cycles
system.cpu.dcache.ReadReq_mshr_miss_rate::.cpu.data     0.000210                       # mshr miss rate for ReadReq accesses
system.cpu.dcache.ReadReq_mshr_miss_rate::total     0.000210                       # mshr miss rate for ReadReq accesses
system.cpu.dcache.ReadReq_avg_mshr_miss_latency::.cpu.data 27168.569254                       # average ReadReq mshr miss latency
system.cpu.dcache.ReadReq_avg_mshr_miss_latency::total 27168.569254                       # average ReadReq mshr miss latency
system.cpu.dcache.WriteReq_hits::.cpu.data      6307540                       # number of WriteReq hits
system.cpu.dcache.WriteReq_hits::total        6307540                       # number of WriteReq hits
system.cpu.dcache.WriteReq_misses::.cpu.data        41200                       # number of WriteReq misses
system.cpu.dcache.WriteReq_misses::total        41200                       # number of WriteReq misses
system.cpu.dcache.WriteReq_miss_latency::.cpu.data   1556392000                       # number of WriteReq miss cycles
system.cpu.dcache.WriteReq_miss_latency::total   1556392000                       # number of WriteReq miss cycles
system.cpu.dcache.WriteReq_accesses::.cpu.data      6348740                       # number of WriteReq accesses(hits+misses)
system.cpu.dcache.WriteReq_accesses::total      6348740                       # number of WriteReq accesses(hits+misses)
system.cpu.dcache.WriteReq_miss_rate::.cpu.data     0.006489                       # miss rate for WriteReq accesses
system.cpu.dcache.WriteReq_miss_rate::total     0.006489                       # miss rate for WriteReq accesses
system.cpu.dcache.WriteReq_avg_miss_latency::.cpu.data 37776.504854                       # average WriteReq miss latency
system.cpu.dcache.WriteReq_avg_miss_latency::total 37776.504854                       # average WriteReq miss latency
system.cpu.dcache.WriteReq_mshr_hits::.cpu.data         4689                       # number of WriteReq MSHR hits
system.cpu.dcache.WriteReq_mshr_hits::total         4689                       # number of WriteReq MSHR hits
system.cpu.dcache.WriteReq_mshr_misses::.cpu.data        36511                       # number of WriteReq MSHR misses
system.cpu.dcache.WriteReq_mshr_misses::total        36511                       # number of WriteReq MSHR misses
system.cpu.dcache.WriteReq_mshr_miss_latency::.cpu.data   1192142000                       # number of WriteReq MSHR miss cycles
system.cpu.dcache.WriteReq_mshr_miss_latency::total   1192142000                       # number of WriteReq MSHR miss cycles
system.cpu.dcache.WriteReq_mshr_miss_rate::.cpu.data     0.005751                       # mshr miss rate for WriteReq accesses
system.cpu.dcache.WriteReq_mshr_miss_rate::total     0.005751                       # mshr miss rate for WriteReq accesses
system.cpu.dcache.WriteReq_avg_mshr_miss_latency::.cpu.data 32651.584454                       # average WriteReq mshr miss latency
system.cpu.dcache.WriteReq_avg_mshr_miss_latency::total 32651.584454                       # average WriteReq mshr miss latency
system.cpu.dcache.SoftPFReq_hits::.cpu.data         8581                       # number of SoftPFReq hits
system.cpu.dcache.SoftPFReq_hits::total          8581                       # number of SoftPFReq hits
system.cpu.dcache.SoftPFReq_misses::.cpu.data           72                       # number of SoftPFReq misses
system.cpu.dcache.SoftPFReq_misses::total           72                       # number of SoftPFReq misses
system.cpu.dcache.SoftPFReq_accesses::.cpu.data         8653                       # number of SoftPFReq accesses(hits+misses)
system.cpu.dcache.SoftPFReq_accesses::total         8653                       # number of SoftPFReq accesses(hits+misses)
system.cpu.dcache.SoftPFReq_miss_rate::.cpu.data     0.008321                       # miss rate for SoftPFReq accesses
system.cpu.dcache.SoftPFReq_miss_rate::total     0.008321                       # miss rate for SoftPFReq accesses
system.cpu.dcache.SoftPFReq_mshr_misses::.cpu.data           46                       # number of SoftPFReq MSHR misses
system.cpu.dcache.SoftPFReq_mshr_misses::total           46                       # number of SoftPFReq MSHR misses
system.cpu.dcache.SoftPFReq_mshr_miss_latency::.cpu.data      4997000                       # number of SoftPFReq MSHR miss cycles
system.cpu.dcache.SoftPFReq_mshr_miss_latency::total      4997000                       # number of SoftPFReq MSHR miss cycles
system.cpu.dcache.SoftPFReq_mshr_miss_rate::.cpu.data     0.005316                       # mshr miss rate for SoftPFReq accesses
system.cpu.dcache.SoftPFReq_mshr_miss_rate::total     0.005316                       # mshr miss rate for SoftPFReq accesses
system.cpu.dcache.SoftPFReq_avg_mshr_miss_latency::.cpu.data 108630.434783                       # average SoftPFReq mshr miss latency
system.cpu.dcache.SoftPFReq_avg_mshr_miss_latency::total 108630.434783                       # average SoftPFReq mshr miss latency
system.cpu.dcache.LoadLockedReq_hits::.cpu.data          166                       # number of LoadLockedReq hits
system.cpu.dcache.LoadLockedReq_hits::total          166                       # number of LoadLockedReq hits
system.cpu.dcache.LoadLockedReq_accesses::.cpu.data          166                       # number of LoadLockedReq accesses(hits+misses)
system.cpu.dcache.LoadLockedReq_accesses::total          166                       # number of LoadLockedReq accesses(hits+misses)
system.cpu.dcache.StoreCondReq_hits::.cpu.data          166                       # number of StoreCondReq hits
system.cpu.dcache.StoreCondReq_hits::total          166                       # number of StoreCondReq hits
system.cpu.dcache.StoreCondReq_accesses::.cpu.data          166                       # number of StoreCondReq accesses(hits+misses)
system.cpu.dcache.StoreCondReq_accesses::total          166                       # number of StoreCondReq accesses(hits+misses)
system.cpu.dcache.tags.pwrStateResidencyTicks::UNDEFINED 118154142000                       # Cumulative time (in ticks) in various power states
system.cpu.dcache.tags.tagsinuse          1005.607661                       # Cycle average of tags in use
system.cpu.dcache.tags.total_refs            43884575                       # Total number of references to valid blocks.
system.cpu.dcache.tags.sampled_refs             44441                       # Sample count of references to valid blocks.
system.cpu.dcache.tags.avg_refs            987.479467                       # Average number of references to valid blocks.
system.cpu.dcache.tags.warmup_cycle            233000                       # Cycle when the warmup percentage was hit.
system.cpu.dcache.tags.occ_blocks::.cpu.data  1005.607661                       # Average occupied blocks per requestor
system.cpu.dcache.tags.occ_percent::.cpu.data     0.982039                       # Average percentage of cache occupancy
system.cpu.dcache.tags.occ_percent::total     0.982039                       # Average percentage of cache occupancy
system.cpu.dcache.tags.occ_task_id_blocks::1024         1024                       # Occupied blocks per task id
system.cpu.dcache.tags.age_task_id_blocks_1024::0            1                       # Occupied blocks per task id
system.cpu.dcache.tags.age_task_id_blocks_1024::2          230                       # Occupied blocks per task id
system.cpu.dcache.tags.age_task_id_blocks_1024::3          772                       # Occupied blocks per task id
system.cpu.dcache.tags.age_task_id_blocks_1024::4           21                       # Occupied blocks per task id
system.cpu.dcache.tags.occ_task_id_percent::1024            1                       # Percentage of cache occupancy per task id
system.cpu.dcache.tags.tag_accesses          87823143                       # Number of tag accesses
system.cpu.dcache.tags.data_accesses         87823143                       # Number of data accesses
system.cpu.itb.walker.pwrStateResidencyTicks::UNDEFINED 118154142000                       # Cumulative time (in ticks) in various power states
system.cpu.itb.stage2_mmu.stage2_tlb.walker.pwrStateResidencyTicks::UNDEFINED 118154142000                       # Cumulative time (in ticks) in various power states

---------- End Simulation Statistics   ----------
